


 39 41  0  0  0  0  0  0  0  0999 V2000
   24.2358   13.2474   14.7771 C   0  0  0  0  0  0  0  0  0  0  0  0
   24.6918   14.6591   14.4074 C   0  0  0  0  0  0  0  0  0  0  0  0
   25.7326   14.9234   15.4868 C   0  0  0  0  0  0  0  0  0  0  0  0
   25.1160   14.2700   16.7239 C   0  0  0  0  0  0  0  0  0  0  0  0
   24.3213   13.1676   16.2235 O   0  0  0  0  0  0  0  0  0  0  0  0
   26.9611   14.2849   15.0942 O   0  0  0  0  0  0  0  0  0  0  0  0
   25.2631   14.7770   13.1102 O   0  0  0  0  0  0  0  0  0  0  0  0
   26.9680   13.3659   15.4211 H   0  0  0  0  0  0  0  0  0  0  0  0
   26.2114   14.5491   13.1992 H   0  0  0  0  0  0  0  0  0  0  0  0
   22.6317   10.5310   11.7517 C   0  0  0  0  0  0  0  0  0  0  0  0
   21.2894   10.4046   11.6590 N   0  0  0  0  0  0  0  0  0  0  0  0
   20.5201   11.1676   12.4668 C   0  0  0  0  0  0  0  0  0  0  0  0
   21.1528   12.0387   13.3663 C   0  0  0  0  0  0  0  0  0  0  0  0
   22.5387   12.0420   13.3679 C   0  0  0  0  0  0  0  0  0  0  0  0
   23.3509   11.3129   12.5848 N   0  0  0  0  0  0  0  0  0  0  0  0
   22.8876   12.9245   14.3533 N   0  0  0  0  0  0  0  0  0  0  0  0
   21.7264   13.3883   14.9005 C   0  0  0  0  0  0  0  0  0  0  0  0
   20.6570   12.9072   14.3125 N   0  0  0  0  0  0  0  0  0  0  0  0
   19.1363   11.0216   12.4007 N   0  0  0  0  0  0  0  0  0  0  0  0
   18.8816   10.1146   12.0315 H   0  0  0  0  0  0  0  0  0  0  0  0
   18.6796   11.3148   13.2587 H   0  0  0  0  0  0  0  0  0  0  0  0
   24.2463   15.2671   17.5129 C   0  0  0  0  0  0  0  0  0  0  0  0
   24.9389   16.4830   17.7529 O   0  0  0  0  0  0  0  0  0  0  0  0
   24.2027   17.9007   17.4727 P   0  0  0  0  0  0  0  0  0  0  0  0
   24.4773   18.9624   18.4959 O   0  0  0  0  0  0  0  0  0  0  0  0
   24.8777   18.6280   15.6163 S   0  0  0  0  0  0  0  0  0  0  0  0
   24.1390   19.7409   15.6572 H   0  0  0  0  0  0  0  0  0  0  0  0
   22.6393   17.5818   17.2846 O   0  0  0  0  0  0  0  0  0  0  0  0
   21.3649   17.7471   18.4429 P   0  0  0  0  0  0  0  0  0  0  0  0
   20.8457   16.3664   18.0720 O   0  0  0  0  0  0  0  0  0  0  0  0
   22.4760   17.5459   19.6302 O   0  0  0  0  0  0  0  0  0  0  0  0
   23.1756   18.2254   19.6270 H   0  0  0  0  0  0  0  0  0  0  0  0
   20.0907   17.9124   19.6013 O   0  0  0  0  0  0  0  0  0  0  0  0
   19.5890   19.5664   19.6749 P   0  0  0  0  0  0  0  0  0  0  0  0
   20.6218   19.9329   18.6125 O   0  0  0  0  0  0  0  0  0  0  0  0
   18.1816   19.2064   18.9541 O   0  0  0  0  0  0  0  0  0  0  0  0
   19.0875   21.2205   19.7485 O   0  0  0  0  0  0  0  0  0  0  0  0
   18.2884   19.2792   17.9896 H   0  0  0  0  0  0  0  0  0  0  0  0
   19.0389   21.5315   20.6688 H   0  0  0  0  0  0  0  0  0  0  0  0
 10 11  1  0  0  0
 10 15  2  0  0  0
 11 12  2  0  0  0
 12 13  1  0  0  0
 12 19  1  0  0  0
 13 14  2  0  0  0
 13 18  1  0  0  0
 14 15  1  0  0  0
 14 16  1  0  0  0
 16 17  1  0  0  0
 16  1  1  0  0  0
 17 18  2  0  0  0
  1  2  1  0  0  0
  1  5  1  0  0  0
  2  3  1  0  0  0
  2  7  1  0  0  0
  3  4  1  0  0  0
  3  6  1  0  0  0
  4  5  1  0  0  0
  4 22  1  0  0  0
 22 23  1  0  0  0
 24 28  1  0  0  0
 24 26  1  0  0  0
 24 25  2  0  0  0
 24 23  1  0  0  0
 28 29  1  0  0  0
 29 30  2  0  0  0
 29 31  1  0  0  0
 29 33  1  0  0  0
 31 32  1  0  0  0
 33 34  1  0  0  0
 34 35  2  0  0  0
 34 36  1  0  0  0
 34 37  1  0  0  0
 36 38  1  0  0  0
 37 39  1  0  0  0
 26 27  1  0  0  0
  6  8  1  0  0  0
  7  9  1  0  0  0
 19 20  1  0  0  0
 19 21  1  0  0  0
M  END
> <minimizedAffinity>
-8.97951

$$$$



 39 41  0  0  0  0  0  0  0  0999 V2000
   21.7293   15.9039   15.3678 C   0  0  0  0  0  0  0  0  0  0  0  0
   21.5428   15.3340   16.7742 C   0  0  0  0  0  0  0  0  0  0  0  0
   21.7974   16.5691   17.6275 C   0  0  0  0  0  0  0  0  0  0  0  0
   22.9322   17.2720   16.8819 C   0  0  0  0  0  0  0  0  0  0  0  0
   22.7475   16.9310   15.4866 O   0  0  0  0  0  0  0  0  0  0  0  0
   20.5943   17.3584   17.6483 O   0  0  0  0  0  0  0  0  0  0  0  0
   20.2508   14.7969   17.0297 O   0  0  0  0  0  0  0  0  0  0  0  0
   20.5975   17.9748   16.8923 H   0  0  0  0  0  0  0  0  0  0  0  0
   19.6865   15.5454   17.3135 H   0  0  0  0  0  0  0  0  0  0  0  0
   20.0921   12.0455   14.1280 C   0  0  0  0  0  0  0  0  0  0  0  0
   20.6846   11.4062   13.0952 N   0  0  0  0  0  0  0  0  0  0  0  0
   21.7829   11.9682   12.5435 C   0  0  0  0  0  0  0  0  0  0  0  0
   22.2418   13.1888   13.0608 C   0  0  0  0  0  0  0  0  0  0  0  0
   21.5165   13.7409   14.1050 C   0  0  0  0  0  0  0  0  0  0  0  0
   20.4259   13.2244   14.6950 N   0  0  0  0  0  0  0  0  0  0  0  0
   22.1391   14.9283   14.3770 N   0  0  0  0  0  0  0  0  0  0  0  0
   23.1743   15.0452   13.4952 C   0  0  0  0  0  0  0  0  0  0  0  0
   23.2939   14.0033   12.7071 N   0  0  0  0  0  0  0  0  0  0  0  0
   22.3822   11.3328   11.4583 N   0  0  0  0  0  0  0  0  0  0  0  0
   21.7248   10.7322   10.9777 H   0  0  0  0  0  0  0  0  0  0  0  0
   22.9203   11.9771   10.8874 H   0  0  0  0  0  0  0  0  0  0  0  0
   24.3110   16.8078   17.3882 C   0  0  0  0  0  0  0  0  0  0  0  0
   25.2678   16.7841   16.3396 O   0  0  0  0  0  0  0  0  0  0  0  0
   26.0932   15.4227   16.0299 P   0  0  0  0  0  0  0  0  0  0  0  0
   27.3982   15.3016   16.7591 O   0  0  0  0  0  0  0  0  0  0  0  0
   24.8964   13.7908   16.6090 S   0  0  0  0  0  0  0  0  0  0  0  0
   25.7913   12.8643   16.2531 H   0  0  0  0  0  0  0  0  0  0  0  0
   26.2404   15.3230   14.4331 O   0  0  0  0  0  0  0  0  0  0  0  0
   26.9855   14.0700   13.5017 P   0  0  0  0  0  0  0  0  0  0  0  0
   26.6618   14.8257   12.2220 O   0  0  0  0  0  0  0  0  0  0  0  0
   28.4424   14.6049   14.0269 O   0  0  0  0  0  0  0  0  0  0  0  0
   28.5431   14.5691   14.9963 H   0  0  0  0  0  0  0  0  0  0  0  0
   27.7307   12.8169   12.5704 O   0  0  0  0  0  0  0  0  0  0  0  0
   26.5669   11.5839   12.2268 P   0  0  0  0  0  0  0  0  0  0  0  0
   27.4675   10.5423   12.8852 O   0  0  0  0  0  0  0  0  0  0  0  0
   25.5484   12.1901   13.3338 O   0  0  0  0  0  0  0  0  0  0  0  0
   25.4032   10.3508   11.8831 O   0  0  0  0  0  0  0  0  0  0  0  0
   25.7324   11.7794   14.1965 H   0  0  0  0  0  0  0  0  0  0  0  0
   25.1132   10.3911   10.9555 H   0  0  0  0  0  0  0  0  0  0  0  0
 10 11  1  0  0  0
 10 15  2  0  0  0
 11 12  2  0  0  0
 12 13  1  0  0  0
 12 19  1  0  0  0
 13 14  2  0  0  0
 13 18  1  0  0  0
 14 15  1  0  0  0
 14 16  1  0  0  0
 16 17  1  0  0  0
 16  1  1  0  0  0
 17 18  2  0  0  0
  1  2  1  0  0  0
  1  5  1  0  0  0
  2  3  1  0  0  0
  2  7  1  0  0  0
  3  4  1  0  0  0
  3  6  1  0  0  0
  4  5  1  0  0  0
  4 22  1  0  0  0
 22 23  1  0  0  0
 24 28  1  0  0  0
 24 26  1  0  0  0
 24 25  2  0  0  0
 24 23  1  0  0  0
 28 29  1  0  0  0
 29 30  2  0  0  0
 29 31  1  0  0  0
 29 33  1  0  0  0
 31 32  1  0  0  0
 33 34  1  0  0  0
 34 35  2  0  0  0
 34 36  1  0  0  0
 34 37  1  0  0  0
 36 38  1  0  0  0
 37 39  1  0  0  0
 26 27  1  0  0  0
  6  8  1  0  0  0
  7  9  1  0  0  0
 19 20  1  0  0  0
 19 21  1  0  0  0
M  END
> <minimizedAffinity>
-8.78290

$$$$



 39 41  0  0  0  0  0  0  0  0999 V2000
   21.9788   15.5393   14.7864 C   0  0  0  0  0  0  0  0  0  0  0  0
   21.8503   15.2253   16.2772 C   0  0  0  0  0  0  0  0  0  0  0  0
   22.0876   16.5996   16.8881 C   0  0  0  0  0  0  0  0  0  0  0  0
   23.1773   17.1888   15.9920 C   0  0  0  0  0  0  0  0  0  0  0  0
   22.9653   16.5987   14.6866 O   0  0  0  0  0  0  0  0  0  0  0  0
   20.8600   17.3464   16.8081 O   0  0  0  0  0  0  0  0  0  0  0  0
   20.5844   14.7071   16.6670 O   0  0  0  0  0  0  0  0  0  0  0  0
   20.8218   17.8174   15.9548 H   0  0  0  0  0  0  0  0  0  0  0  0
   20.0038   15.4784   16.8316 H   0  0  0  0  0  0  0  0  0  0  0  0
   20.0486   11.7685   13.7091 C   0  0  0  0  0  0  0  0  0  0  0  0
   20.6909   10.9495   12.8471 N   0  0  0  0  0  0  0  0  0  0  0  0
   21.9173   11.3163   12.4133 C   0  0  0  0  0  0  0  0  0  0  0  0
   22.4526   12.5305   12.8683 C   0  0  0  0  0  0  0  0  0  0  0  0
   21.6673   13.2795   13.7303 C   0  0  0  0  0  0  0  0  0  0  0  0
   20.4490   12.9614   14.1983 N   0  0  0  0  0  0  0  0  0  0  0  0
   22.3929   14.4139   13.9720 N   0  0  0  0  0  0  0  0  0  0  0  0
   23.5459   14.3094   13.2490 C   0  0  0  0  0  0  0  0  0  0  0  0
   23.6387   13.1749   12.5969 N   0  0  0  0  0  0  0  0  0  0  0  0
   22.5739   10.4941   11.5004 N   0  0  0  0  0  0  0  0  0  0  0  0
   21.9176    9.9181   10.9892 H   0  0  0  0  0  0  0  0  0  0  0  0
   23.2632   11.0023   10.9551 H   0  0  0  0  0  0  0  0  0  0  0  0
   24.5843   16.8609   16.5268 C   0  0  0  0  0  0  0  0  0  0  0  0
   24.8281   17.4989   17.7714 O   0  0  0  0  0  0  0  0  0  0  0  0
   25.3677   19.0280   17.8032 P   0  0  0  0  0  0  0  0  0  0  0  0
   26.2086   19.3710   18.9968 O   0  0  0  0  0  0  0  0  0  0  0  0
   26.5527   19.3351   16.0909 S   0  0  0  0  0  0  0  0  0  0  0  0
   26.8376   20.6085   16.3792 H   0  0  0  0  0  0  0  0  0  0  0  0
   24.0823   19.9766   17.6317 O   0  0  0  0  0  0  0  0  0  0  0  0
   22.7875   20.2393   18.7485 P   0  0  0  0  0  0  0  0  0  0  0  0
   21.7772   19.9824   17.6410 O   0  0  0  0  0  0  0  0  0  0  0  0
   23.1395   18.7919   19.4309 O   0  0  0  0  0  0  0  0  0  0  0  0
   24.0445   18.7418   19.7908 H   0  0  0  0  0  0  0  0  0  0  0  0
   21.4927   20.5019   19.8654 O   0  0  0  0  0  0  0  0  0  0  0  0
   20.2676   19.3054   19.6197 P   0  0  0  0  0  0  0  0  0  0  0  0
   20.4363   18.8285   21.0597 O   0  0  0  0  0  0  0  0  0  0  0  0
   19.1171   20.4470   19.5634 O   0  0  0  0  0  0  0  0  0  0  0  0
   19.0425   18.1088   19.3739 O   0  0  0  0  0  0  0  0  0  0  0  0
   18.7824   20.6085   20.4627 H   0  0  0  0  0  0  0  0  0  0  0  0
   19.2005   17.6083   18.5550 H   0  0  0  0  0  0  0  0  0  0  0  0
 10 11  1  0  0  0
 10 15  2  0  0  0
 11 12  2  0  0  0
 12 13  1  0  0  0
 12 19  1  0  0  0
 13 14  2  0  0  0
 13 18  1  0  0  0
 14 15  1  0  0  0
 14 16  1  0  0  0
 16 17  1  0  0  0
 16  1  1  0  0  0
 17 18  2  0  0  0
  1  2  1  0  0  0
  1  5  1  0  0  0
  2  3  1  0  0  0
  2  7  1  0  0  0
  3  4  1  0  0  0
  3  6  1  0  0  0
  4  5  1  0  0  0
  4 22  1  0  0  0
 22 23  1  0  0  0
 24 28  1  0  0  0
 24 26  1  0  0  0
 24 25  2  0  0  0
 24 23  1  0  0  0
 28 29  1  0  0  0
 29 30  2  0  0  0
 29 31  1  0  0  0
 29 33  1  0  0  0
 31 32  1  0  0  0
 33 34  1  0  0  0
 34 35  2  0  0  0
 34 36  1  0  0  0
 34 37  1  0  0  0
 36 38  1  0  0  0
 37 39  1  0  0  0
 26 27  1  0  0  0
  6  8  1  0  0  0
  7  9  1  0  0  0
 19 20  1  0  0  0
 19 21  1  0  0  0
M  END
> <minimizedAffinity>
-8.72894

$$$$



 39 41  0  0  0  0  0  0  0  0999 V2000
   16.2404   26.4857   28.6973 C   0  0  0  0  0  0  0  0  0  0  0  0
   15.3509   26.9525   27.5447 C   0  0  0  0  0  0  0  0  0  0  0  0
   14.6231   28.1232   28.1911 C   0  0  0  0  0  0  0  0  0  0  0  0
   14.3822   27.6304   29.6182 C   0  0  0  0  0  0  0  0  0  0  0  0
   15.4846   26.7377   29.9102 O   0  0  0  0  0  0  0  0  0  0  0  0
   15.4921   29.2697   28.1549 O   0  0  0  0  0  0  0  0  0  0  0  0
   16.0569   27.3714   26.3831 O   0  0  0  0  0  0  0  0  0  0  0  0
   16.0525   29.2773   28.9532 H   0  0  0  0  0  0  0  0  0  0  0  0
   16.2876   28.3134   26.5191 H   0  0  0  0  0  0  0  0  0  0  0  0
   18.3038   24.0688   25.6964 C   0  0  0  0  0  0  0  0  0  0  0  0
   18.5637   22.7757   25.9912 N   0  0  0  0  0  0  0  0  0  0  0  0
   18.1202   22.2896   27.1717 C   0  0  0  0  0  0  0  0  0  0  0  0
   17.4269   23.1530   28.0330 C   0  0  0  0  0  0  0  0  0  0  0  0
   17.2579   24.4615   27.6084 C   0  0  0  0  0  0  0  0  0  0  0  0
   17.6697   24.9951   26.4465 N   0  0  0  0  0  0  0  0  0  0  0  0
   16.6088   25.0850   28.6387 N   0  0  0  0  0  0  0  0  0  0  0  0
   16.4362   24.1533   29.6212 C   0  0  0  0  0  0  0  0  0  0  0  0
   16.8831   22.9669   29.2840 N   0  0  0  0  0  0  0  0  0  0  0  0
   18.4104   20.9669   27.4981 N   0  0  0  0  0  0  0  0  0  0  0  0
   19.2229   20.6357   26.9941 H   0  0  0  0  0  0  0  0  0  0  0  0
   18.3937   20.8080   28.5007 H   0  0  0  0  0  0  0  0  0  0  0  0
   13.0308   26.9012   29.7417 C   0  0  0  0  0  0  0  0  0  0  0  0
   13.1872   25.4951   29.6237 O   0  0  0  0  0  0  0  0  0  0  0  0
   12.3213   24.6755   28.5243 P   0  0  0  0  0  0  0  0  0  0  0  0
   11.6375   25.5317   27.5003 O   0  0  0  0  0  0  0  0  0  0  0  0
   13.6299   23.3883   27.4940 S   0  0  0  0  0  0  0  0  0  0  0  0
   12.6827   22.8767   26.7021 H   0  0  0  0  0  0  0  0  0  0  0  0
   11.3143   23.7267   29.3411 O   0  0  0  0  0  0  0  0  0  0  0  0
    9.6457   23.4043   29.0176 P   0  0  0  0  0  0  0  0  0  0  0  0
    9.2958   24.8393   29.3808 O   0  0  0  0  0  0  0  0  0  0  0  0
   10.0045   23.3811   27.4191 O   0  0  0  0  0  0  0  0  0  0  0  0
   10.6534   22.6947   27.1763 H   0  0  0  0  0  0  0  0  0  0  0  0
    7.9771   23.0819   28.6939 O   0  0  0  0  0  0  0  0  0  0  0  0
    7.6743   21.3868   28.8605 P   0  0  0  0  0  0  0  0  0  0  0  0
    6.8584   21.3998   27.5707 O   0  0  0  0  0  0  0  0  0  0  0  0
    9.2209   21.0426   28.5143 O   0  0  0  0  0  0  0  0  0  0  0  0
    7.3714   19.6917   29.0272 O   0  0  0  0  0  0  0  0  0  0  0  0
    9.3165   20.9334   27.5521 H   0  0  0  0  0  0  0  0  0  0  0  0
    7.0676   19.4765   29.9258 H   0  0  0  0  0  0  0  0  0  0  0  0
 10 11  1  0  0  0
 10 15  2  0  0  0
 11 12  2  0  0  0
 12 13  1  0  0  0
 12 19  1  0  0  0
 13 14  2  0  0  0
 13 18  1  0  0  0
 14 15  1  0  0  0
 14 16  1  0  0  0
 16 17  1  0  0  0
 16  1  1  0  0  0
 17 18  2  0  0  0
  1  2  1  0  0  0
  1  5  1  0  0  0
  2  3  1  0  0  0
  2  7  1  0  0  0
  3  4  1  0  0  0
  3  6  1  0  0  0
  4  5  1  0  0  0
  4 22  1  0  0  0
 22 23  1  0  0  0
 24 28  1  0  0  0
 24 26  1  0  0  0
 24 25  2  0  0  0
 24 23  1  0  0  0
 28 29  1  0  0  0
 29 30  2  0  0  0
 29 31  1  0  0  0
 29 33  1  0  0  0
 31 32  1  0  0  0
 33 34  1  0  0  0
 34 35  2  0  0  0
 34 36  1  0  0  0
 34 37  1  0  0  0
 36 38  1  0  0  0
 37 39  1  0  0  0
 26 27  1  0  0  0
  6  8  1  0  0  0
  7  9  1  0  0  0
 19 20  1  0  0  0
 19 21  1  0  0  0
M  END
> <minimizedAffinity>
-8.49483

$$$$



 39 41  0  0  0  0  0  0  0  0999 V2000
   21.2411   17.4306   18.1152 C   0  0  0  0  0  0  0  0  0  0  0  0
   21.5621   17.2158   16.6359 C   0  0  0  0  0  0  0  0  0  0  0  0
   21.8361   15.7183   16.6094 C   0  0  0  0  0  0  0  0  0  0  0  0
   22.5754   15.4825   17.9267 C   0  0  0  0  0  0  0  0  0  0  0  0
   22.0617   16.4800   18.8424 O   0  0  0  0  0  0  0  0  0  0  0  0
   20.5732   15.0297   16.5679 O   0  0  0  0  0  0  0  0  0  0  0  0
   20.5067   17.5556   15.7449 O   0  0  0  0  0  0  0  0  0  0  0  0
   20.2566   14.8775   17.4779 H   0  0  0  0  0  0  0  0  0  0  0  0
   19.9284   16.7678   15.6811 H   0  0  0  0  0  0  0  0  0  0  0  0
   18.6785   20.6120   19.6697 C   0  0  0  0  0  0  0  0  0  0  0  0
   19.2692   21.7426   20.1161 N   0  0  0  0  0  0  0  0  0  0  0  0
   20.6119   21.8475   20.0030 C   0  0  0  0  0  0  0  0  0  0  0  0
   21.3221   20.7755   19.4423 C   0  0  0  0  0  0  0  0  0  0  0  0
   20.5846   19.6686   19.0528 C   0  0  0  0  0  0  0  0  0  0  0  0
   19.2528   19.5135   19.1347 N   0  0  0  0  0  0  0  0  0  0  0  0
   21.5109   18.7709   18.5970 N   0  0  0  0  0  0  0  0  0  0  0  0
   22.7359   19.3543   18.7452 C   0  0  0  0  0  0  0  0  0  0  0  0
   22.6658   20.5759   19.2184 N   0  0  0  0  0  0  0  0  0  0  0  0
   21.2331   22.9957   20.4890 N   0  0  0  0  0  0  0  0  0  0  0  0
   20.6655   23.4480   21.1940 H   0  0  0  0  0  0  0  0  0  0  0  0
   22.2093   22.8350   20.7166 H   0  0  0  0  0  0  0  0  0  0  0  0
   24.0992   15.6243   17.7504 C   0  0  0  0  0  0  0  0  0  0  0  0
   24.5404   15.0204   16.5436 O   0  0  0  0  0  0  0  0  0  0  0  0
   25.4944   15.8494   15.5273 P   0  0  0  0  0  0  0  0  0  0  0  0
   25.1117   17.2876   15.3413 O   0  0  0  0  0  0  0  0  0  0  0  0
   27.4522   15.8154   16.2998 S   0  0  0  0  0  0  0  0  0  0  0  0
   27.9774   16.5360   15.3044 H   0  0  0  0  0  0  0  0  0  0  0  0
   25.5426   15.0169   14.1540 O   0  0  0  0  0  0  0  0  0  0  0  0
   24.5093   13.7254   13.6469 P   0  0  0  0  0  0  0  0  0  0  0  0
   23.6204   14.7204   12.9165 O   0  0  0  0  0  0  0  0  0  0  0  0
   25.6791   13.2582   12.5991 O   0  0  0  0  0  0  0  0  0  0  0  0
   26.5190   13.0214   13.0346 H   0  0  0  0  0  0  0  0  0  0  0  0
   23.4761   12.4339   13.1396 O   0  0  0  0  0  0  0  0  0  0  0  0
   21.9216   12.6154   13.8768 P   0  0  0  0  0  0  0  0  0  0  0  0
   21.7021   11.1070   13.7990 O   0  0  0  0  0  0  0  0  0  0  0  0
   22.6032   12.9863   15.3009 O   0  0  0  0  0  0  0  0  0  0  0  0
   20.3670   12.7970   14.6138 O   0  0  0  0  0  0  0  0  0  0  0  0
   22.7506   12.1686   15.8075 H   0  0  0  0  0  0  0  0  0  0  0  0
   19.8533   13.4999   14.1802 H   0  0  0  0  0  0  0  0  0  0  0  0
 10 11  1  0  0  0
 10 15  2  0  0  0
 11 12  2  0  0  0
 12 13  1  0  0  0
 12 19  1  0  0  0
 13 14  2  0  0  0
 13 18  1  0  0  0
 14 15  1  0  0  0
 14 16  1  0  0  0
 16 17  1  0  0  0
 16  1  1  0  0  0
 17 18  2  0  0  0
  1  2  1  0  0  0
  1  5  1  0  0  0
  2  3  1  0  0  0
  2  7  1  0  0  0
  3  4  1  0  0  0
  3  6  1  0  0  0
  4  5  1  0  0  0
  4 22  1  0  0  0
 22 23  1  0  0  0
 24 28  1  0  0  0
 24 26  1  0  0  0
 24 25  2  0  0  0
 24 23  1  0  0  0
 28 29  1  0  0  0
 29 30  2  0  0  0
 29 31  1  0  0  0
 29 33  1  0  0  0
 31 32  1  0  0  0
 33 34  1  0  0  0
 34 35  2  0  0  0
 34 36  1  0  0  0
 34 37  1  0  0  0
 36 38  1  0  0  0
 37 39  1  0  0  0
 26 27  1  0  0  0
  6  8  1  0  0  0
  7  9  1  0  0  0
 19 20  1  0  0  0
 19 21  1  0  0  0
M  END
> <minimizedAffinity>
-8.47575

$$$$



 39 41  0  0  0  0  0  0  0  0999 V2000
   22.5696   12.4012   13.0357 C   0  0  0  0  0  0  0  0  0  0  0  0
   21.8300   11.3275   13.8343 C   0  0  0  0  0  0  0  0  0  0  0  0
   20.5231   12.0429   14.1479 C   0  0  0  0  0  0  0  0  0  0  0  0
   20.9750   13.4785   14.4169 C   0  0  0  0  0  0  0  0  0  0  0  0
   22.1540   13.6725   13.5986 O   0  0  0  0  0  0  0  0  0  0  0  0
   19.6711   11.9525   12.9916 O   0  0  0  0  0  0  0  0  0  0  0  0
   21.5904   10.1193   13.1229 O   0  0  0  0  0  0  0  0  0  0  0  0
   19.8505   12.7045   12.3968 H   0  0  0  0  0  0  0  0  0  0  0  0
   20.7583   10.2480   12.6229 H   0  0  0  0  0  0  0  0  0  0  0  0
   25.4429    9.7556   11.0738 C   0  0  0  0  0  0  0  0  0  0  0  0
   26.7590    9.9779   11.2860 N   0  0  0  0  0  0  0  0  0  0  0  0
   27.1090   10.9677   12.1371 C   0  0  0  0  0  0  0  0  0  0  0  0
   26.0918   11.7195   12.7439 C   0  0  0  0  0  0  0  0  0  0  0  0
   24.7864   11.3946   12.4103 C   0  0  0  0  0  0  0  0  0  0  0  0
   24.3818   10.4198   11.5794 N   0  0  0  0  0  0  0  0  0  0  0  0
   24.0144   12.2972   13.0893 N   0  0  0  0  0  0  0  0  0  0  0  0
   24.8675   13.1167   13.7701 C   0  0  0  0  0  0  0  0  0  0  0  0
   26.1269   12.7825   13.6180 N   0  0  0  0  0  0  0  0  0  0  0  0
   28.4632   11.2249   12.3381 N   0  0  0  0  0  0  0  0  0  0  0  0
   29.0173   10.8979   11.5571 H   0  0  0  0  0  0  0  0  0  0  0  0
   28.6289   12.1751   12.6550 H   0  0  0  0  0  0  0  0  0  0  0  0
   21.2928   13.6987   15.9081 C   0  0  0  0  0  0  0  0  0  0  0  0
   22.6907   13.8098   16.1299 O   0  0  0  0  0  0  0  0  0  0  0  0
   23.2846   15.1021   16.9093 P   0  0  0  0  0  0  0  0  0  0  0  0
   24.6266   14.8888   17.5441 O   0  0  0  0  0  0  0  0  0  0  0  0
   23.4910   16.6647   15.5142 S   0  0  0  0  0  0  0  0  0  0  0  0
   23.9719   17.5423   16.3999 H   0  0  0  0  0  0  0  0  0  0  0  0
   22.1538   15.5775   17.9470 O   0  0  0  0  0  0  0  0  0  0  0  0
   22.0181   17.0974   18.7620 P   0  0  0  0  0  0  0  0  0  0  0  0
   21.6046   16.3791   20.0374 O   0  0  0  0  0  0  0  0  0  0  0  0
   23.6537   17.1927   18.7662 O   0  0  0  0  0  0  0  0  0  0  0  0
   24.0454   17.1914   17.8730 H   0  0  0  0  0  0  0  0  0  0  0  0
   21.8824   18.6174   19.5770 O   0  0  0  0  0  0  0  0  0  0  0  0
   20.2746   19.2290   19.3932 P   0  0  0  0  0  0  0  0  0  0  0  0
   20.7905   20.3209   18.4599 O   0  0  0  0  0  0  0  0  0  0  0  0
   19.8459   17.9327   18.5178 O   0  0  0  0  0  0  0  0  0  0  0  0
   18.6669   19.8406   19.2094 O   0  0  0  0  0  0  0  0  0  0  0  0
   20.0231   18.1090   17.5774 H   0  0  0  0  0  0  0  0  0  0  0  0
   18.2314   19.9472   20.0726 H   0  0  0  0  0  0  0  0  0  0  0  0
 10 11  1  0  0  0
 10 15  2  0  0  0
 11 12  2  0  0  0
 12 13  1  0  0  0
 12 19  1  0  0  0
 13 14  2  0  0  0
 13 18  1  0  0  0
 14 15  1  0  0  0
 14 16  1  0  0  0
 16 17  1  0  0  0
 16  1  1  0  0  0
 17 18  2  0  0  0
  1  2  1  0  0  0
  1  5  1  0  0  0
  2  3  1  0  0  0
  2  7  1  0  0  0
  3  4  1  0  0  0
  3  6  1  0  0  0
  4  5  1  0  0  0
  4 22  1  0  0  0
 22 23  1  0  0  0
 24 28  1  0  0  0
 24 26  1  0  0  0
 24 25  2  0  0  0
 24 23  1  0  0  0
 28 29  1  0  0  0
 29 30  2  0  0  0
 29 31  1  0  0  0
 29 33  1  0  0  0
 31 32  1  0  0  0
 33 34  1  0  0  0
 34 35  2  0  0  0
 34 36  1  0  0  0
 34 37  1  0  0  0
 36 38  1  0  0  0
 37 39  1  0  0  0
 26 27  1  0  0  0
  6  8  1  0  0  0
  7  9  1  0  0  0
 19 20  1  0  0  0
 19 21  1  0  0  0
M  END
> <minimizedAffinity>
-8.43048

$$$$



 39 41  0  0  0  0  0  0  0  0999 V2000
   21.8948   14.0300   14.3050 C   0  0  0  0  0  0  0  0  0  0  0  0
   21.0165   13.1803   15.2239 C   0  0  0  0  0  0  0  0  0  0  0  0
   20.1108   14.2437   15.8298 C   0  0  0  0  0  0  0  0  0  0  0  0
   21.0566   15.4292   16.0228 C   0  0  0  0  0  0  0  0  0  0  0  0
   22.0449   15.3106   14.9709 O   0  0  0  0  0  0  0  0  0  0  0  0
   19.0644   14.5355   14.8860 O   0  0  0  0  0  0  0  0  0  0  0  0
   20.2535   12.1818   14.5576 O   0  0  0  0  0  0  0  0  0  0  0  0
   19.3601   15.2418   14.2818 H   0  0  0  0  0  0  0  0  0  0  0  0
   19.4289   12.6143   14.2541 H   0  0  0  0  0  0  0  0  0  0  0  0
   23.2749   10.7860   11.7212 C   0  0  0  0  0  0  0  0  0  0  0  0
   24.6046   10.5573   11.6438 N   0  0  0  0  0  0  0  0  0  0  0  0
   25.4259   11.3060   12.4130 C   0  0  0  0  0  0  0  0  0  0  0  0
   24.8586   12.2876   13.2392 C   0  0  0  0  0  0  0  0  0  0  0  0
   23.4803   12.4266   13.1943 C   0  0  0  0  0  0  0  0  0  0  0  0
   22.6178   11.7078   12.4570 N   0  0  0  0  0  0  0  0  0  0  0  0
   23.2035   13.4660   14.0397 N   0  0  0  0  0  0  0  0  0  0  0  0
   24.3981   13.9082   14.5300 C   0  0  0  0  0  0  0  0  0  0  0  0
   25.4183   13.2039   14.1009 N   0  0  0  0  0  0  0  0  0  0  0  0
   26.8001   11.0991   12.3168 N   0  0  0  0  0  0  0  0  0  0  0  0
   27.0456   10.6812   11.4286 H   0  0  0  0  0  0  0  0  0  0  0  0
   27.3306   11.9154   12.6045 H   0  0  0  0  0  0  0  0  0  0  0  0
   21.7202   15.3997   17.4127 C   0  0  0  0  0  0  0  0  0  0  0  0
   21.1149   16.3314   18.2966 O   0  0  0  0  0  0  0  0  0  0  0  0
   21.8312   17.7586   18.5801 P   0  0  0  0  0  0  0  0  0  0  0  0
   22.7719   17.7665   19.7483 O   0  0  0  0  0  0  0  0  0  0  0  0
   22.9468   18.2768   16.8720 S   0  0  0  0  0  0  0  0  0  0  0  0
   23.3949   19.4301   17.3770 H   0  0  0  0  0  0  0  0  0  0  0  0
   20.6586   18.8509   18.6949 O   0  0  0  0  0  0  0  0  0  0  0  0
   20.4549   20.0827   19.8925 P   0  0  0  0  0  0  0  0  0  0  0  0
   19.0078   20.2656   19.4614 O   0  0  0  0  0  0  0  0  0  0  0  0
   20.4765   18.9119   21.0386 O   0  0  0  0  0  0  0  0  0  0  0  0
   21.3054   18.3983   21.0540 H   0  0  0  0  0  0  0  0  0  0  0  0
   20.2512   21.3143   21.0902 O   0  0  0  0  0  0  0  0  0  0  0  0
   19.7974   22.7965   20.3219 P   0  0  0  0  0  0  0  0  0  0  0  0
   19.0385   23.2210   21.5763 O   0  0  0  0  0  0  0  0  0  0  0  0
   21.3214   23.3448   20.4050 O   0  0  0  0  0  0  0  0  0  0  0  0
   19.3436   24.2785   19.5537 O   0  0  0  0  0  0  0  0  0  0  0  0
   21.4462   23.8166   21.2469 H   0  0  0  0  0  0  0  0  0  0  0  0
   18.9863   24.1170   18.6635 H   0  0  0  0  0  0  0  0  0  0  0  0
 10 11  1  0  0  0
 10 15  2  0  0  0
 11 12  2  0  0  0
 12 13  1  0  0  0
 12 19  1  0  0  0
 13 14  2  0  0  0
 13 18  1  0  0  0
 14 15  1  0  0  0
 14 16  1  0  0  0
 16 17  1  0  0  0
 16  1  1  0  0  0
 17 18  2  0  0  0
  1  2  1  0  0  0
  1  5  1  0  0  0
  2  3  1  0  0  0
  2  7  1  0  0  0
  3  4  1  0  0  0
  3  6  1  0  0  0
  4  5  1  0  0  0
  4 22  1  0  0  0
 22 23  1  0  0  0
 24 28  1  0  0  0
 24 26  1  0  0  0
 24 25  2  0  0  0
 24 23  1  0  0  0
 28 29  1  0  0  0
 29 30  2  0  0  0
 29 31  1  0  0  0
 29 33  1  0  0  0
 31 32  1  0  0  0
 33 34  1  0  0  0
 34 35  2  0  0  0
 34 36  1  0  0  0
 34 37  1  0  0  0
 36 38  1  0  0  0
 37 39  1  0  0  0
 26 27  1  0  0  0
  6  8  1  0  0  0
  7  9  1  0  0  0
 19 20  1  0  0  0
 19 21  1  0  0  0
M  END
> <minimizedAffinity>
-8.39040

$$$$



 39 41  0  0  0  0  0  0  0  0999 V2000
   21.4357   16.1641   17.8667 C   0  0  0  0  0  0  0  0  0  0  0  0
   22.0719   16.5938   19.1890 C   0  0  0  0  0  0  0  0  0  0  0  0
   21.5140   18.0025   19.3390 C   0  0  0  0  0  0  0  0  0  0  0  0
   21.5285   18.5308   17.9043 C   0  0  0  0  0  0  0  0  0  0  0  0
   21.3389   17.3680   17.0622 O   0  0  0  0  0  0  0  0  0  0  0  0
   20.1782   17.9046   19.8652 O   0  0  0  0  0  0  0  0  0  0  0  0
   21.7207   15.7861   20.3058 O   0  0  0  0  0  0  0  0  0  0  0  0
   19.5450   17.8154   19.1285 H   0  0  0  0  0  0  0  0  0  0  0  0
   20.8774   16.1410   20.6551 H   0  0  0  0  0  0  0  0  0  0  0  0
   20.3970   13.4484   14.6031 C   0  0  0  0  0  0  0  0  0  0  0  0
   21.3740   12.6678   14.0908 N   0  0  0  0  0  0  0  0  0  0  0  0
   22.6007   12.7298   14.6547 C   0  0  0  0  0  0  0  0  0  0  0  0
   22.7993   13.6082   15.7303 C   0  0  0  0  0  0  0  0  0  0  0  0
   21.7107   14.3666   16.1312 C   0  0  0  0  0  0  0  0  0  0  0  0
   20.4713   14.3405   15.6139 N   0  0  0  0  0  0  0  0  0  0  0  0
   22.1851   15.1567   17.1423 N   0  0  0  0  0  0  0  0  0  0  0  0
   23.5093   14.8605   17.2899 C   0  0  0  0  0  0  0  0  0  0  0  0
   23.9125   13.9080   16.4829 N   0  0  0  0  0  0  0  0  0  0  0  0
   23.6221   11.9523   14.1137 N   0  0  0  0  0  0  0  0  0  0  0  0
   23.4300   11.7165   13.1486 H   0  0  0  0  0  0  0  0  0  0  0  0
   24.5412   12.3300   14.3217 H   0  0  0  0  0  0  0  0  0  0  0  0
   22.8566   19.2403   17.5790 C   0  0  0  0  0  0  0  0  0  0  0  0
   23.7127   18.4108   16.8078 O   0  0  0  0  0  0  0  0  0  0  0  0
   25.2212   18.9005   16.4688 P   0  0  0  0  0  0  0  0  0  0  0  0
   25.4161   19.4078   15.0709 O   0  0  0  0  0  0  0  0  0  0  0  0
   25.7044   20.4739   17.7810 S   0  0  0  0  0  0  0  0  0  0  0  0
   26.9332   20.6565   17.2885 H   0  0  0  0  0  0  0  0  0  0  0  0
   26.1999   17.6850   16.8510 O   0  0  0  0  0  0  0  0  0  0  0  0
   26.9108   16.5100   15.7989 P   0  0  0  0  0  0  0  0  0  0  0  0
   26.9457   15.5056   16.9406 O   0  0  0  0  0  0  0  0  0  0  0  0
   25.4569   16.3552   15.0596 O   0  0  0  0  0  0  0  0  0  0  0  0
   25.1339   17.1841   14.6599 H   0  0  0  0  0  0  0  0  0  0  0  0
   27.6216   15.3349   14.7468 O   0  0  0  0  0  0  0  0  0  0  0  0
   26.3988   14.6607   13.7254 P   0  0  0  0  0  0  0  0  0  0  0  0
   27.4336   14.4336   12.6267 O   0  0  0  0  0  0  0  0  0  0  0  0
   26.3045   13.3362   14.6565 O   0  0  0  0  0  0  0  0  0  0  0  0
   25.1760   13.9866   12.7040 O   0  0  0  0  0  0  0  0  0  0  0  0
   26.9411   12.6738   14.3357 H   0  0  0  0  0  0  0  0  0  0  0  0
   24.3886   14.5570   12.6764 H   0  0  0  0  0  0  0  0  0  0  0  0
 10 11  1  0  0  0
 10 15  2  0  0  0
 11 12  2  0  0  0
 12 13  1  0  0  0
 12 19  1  0  0  0
 13 14  2  0  0  0
 13 18  1  0  0  0
 14 15  1  0  0  0
 14 16  1  0  0  0
 16 17  1  0  0  0
 16  1  1  0  0  0
 17 18  2  0  0  0
  1  2  1  0  0  0
  1  5  1  0  0  0
  2  3  1  0  0  0
  2  7  1  0  0  0
  3  4  1  0  0  0
  3  6  1  0  0  0
  4  5  1  0  0  0
  4 22  1  0  0  0
 22 23  1  0  0  0
 24 28  1  0  0  0
 24 26  1  0  0  0
 24 25  2  0  0  0
 24 23  1  0  0  0
 28 29  1  0  0  0
 29 30  2  0  0  0
 29 31  1  0  0  0
 29 33  1  0  0  0
 31 32  1  0  0  0
 33 34  1  0  0  0
 34 35  2  0  0  0
 34 36  1  0  0  0
 34 37  1  0  0  0
 36 38  1  0  0  0
 37 39  1  0  0  0
 26 27  1  0  0  0
  6  8  1  0  0  0
  7  9  1  0  0  0
 19 20  1  0  0  0
 19 21  1  0  0  0
M  END
> <minimizedAffinity>
-8.38536

$$$$



 39 41  0  0  0  0  0  0  0  0999 V2000
   24.1981   17.3862   16.7006 C   0  0  0  0  0  0  0  0  0  0  0  0
   25.4539   17.0624   17.5105 C   0  0  0  0  0  0  0  0  0  0  0  0
   26.4052   16.6132   16.4099 C   0  0  0  0  0  0  0  0  0  0  0  0
   25.4910   15.8331   15.4648 C   0  0  0  0  0  0  0  0  0  0  0  0
   24.1865   16.4488   15.5929 O   0  0  0  0  0  0  0  0  0  0  0  0
   26.9556   17.7860   15.7834 O   0  0  0  0  0  0  0  0  0  0  0  0
   25.9941   18.1628   18.2320 O   0  0  0  0  0  0  0  0  0  0  0  0
   26.3710   18.0698   15.0559 H   0  0  0  0  0  0  0  0  0  0  0  0
   26.5799   18.6445   17.6124 H   0  0  0  0  0  0  0  0  0  0  0  0
   21.4209   20.3346   18.3433 C   0  0  0  0  0  0  0  0  0  0  0  0
   20.2911   19.8841   18.9324 N   0  0  0  0  0  0  0  0  0  0  0  0
   20.1130   18.5480   19.0310 C   0  0  0  0  0  0  0  0  0  0  0  0
   21.1004   17.7007   18.5064 C   0  0  0  0  0  0  0  0  0  0  0  0
   22.1935   18.3058   17.9066 C   0  0  0  0  0  0  0  0  0  0  0  0
   22.4250   19.6236   17.7874 N   0  0  0  0  0  0  0  0  0  0  0  0
   22.9600   17.2707   17.4456 N   0  0  0  0  0  0  0  0  0  0  0  0
   22.3028   16.1174   17.7635 C   0  0  0  0  0  0  0  0  0  0  0  0
   21.1953   16.3291   18.4340 N   0  0  0  0  0  0  0  0  0  0  0  0
   18.9372   18.0740   19.6084 N   0  0  0  0  0  0  0  0  0  0  0  0
   18.1983   18.7629   19.5513 H   0  0  0  0  0  0  0  0  0  0  0  0
   18.7139   17.1321   19.3026 H   0  0  0  0  0  0  0  0  0  0  0  0
   25.4381   14.3394   15.8380 C   0  0  0  0  0  0  0  0  0  0  0  0
   24.3274   13.6929   15.2347 O   0  0  0  0  0  0  0  0  0  0  0  0
   24.3693   13.3194   13.6571 P   0  0  0  0  0  0  0  0  0  0  0  0
   24.2828   14.4967   12.7320 O   0  0  0  0  0  0  0  0  0  0  0  0
   26.1952   12.3472   13.2674 S   0  0  0  0  0  0  0  0  0  0  0  0
   25.9528   12.1727   11.9647 H   0  0  0  0  0  0  0  0  0  0  0  0
   23.2197   12.2246   13.4093 O   0  0  0  0  0  0  0  0  0  0  0  0
   21.5287   12.3498   13.7523 P   0  0  0  0  0  0  0  0  0  0  0  0
   21.2120   12.1345   12.2803 O   0  0  0  0  0  0  0  0  0  0  0  0
   21.6053   10.8715   14.4544 O   0  0  0  0  0  0  0  0  0  0  0  0
   22.2190   10.8321   15.2114 H   0  0  0  0  0  0  0  0  0  0  0  0
   19.8377   12.4750   14.0953 O   0  0  0  0  0  0  0  0  0  0  0  0
   19.6133   13.3104   15.5935 P   0  0  0  0  0  0  0  0  0  0  0  0
   21.1205   13.5220   15.7078 O   0  0  0  0  0  0  0  0  0  0  0  0
   18.9499   14.5761   14.8267 O   0  0  0  0  0  0  0  0  0  0  0  0
   19.3890   14.1457   17.0917 O   0  0  0  0  0  0  0  0  0  0  0  0
   19.6513   15.2035   14.5791 H   0  0  0  0  0  0  0  0  0  0  0  0
   18.8077   13.6444   17.6891 H   0  0  0  0  0  0  0  0  0  0  0  0
 10 11  1  0  0  0
 10 15  2  0  0  0
 11 12  2  0  0  0
 12 13  1  0  0  0
 12 19  1  0  0  0
 13 14  2  0  0  0
 13 18  1  0  0  0
 14 15  1  0  0  0
 14 16  1  0  0  0
 16 17  1  0  0  0
 16  1  1  0  0  0
 17 18  2  0  0  0
  1  2  1  0  0  0
  1  5  1  0  0  0
  2  3  1  0  0  0
  2  7  1  0  0  0
  3  4  1  0  0  0
  3  6  1  0  0  0
  4  5  1  0  0  0
  4 22  1  0  0  0
 22 23  1  0  0  0
 24 28  1  0  0  0
 24 26  1  0  0  0
 24 25  2  0  0  0
 24 23  1  0  0  0
 28 29  1  0  0  0
 29 30  2  0  0  0
 29 31  1  0  0  0
 29 33  1  0  0  0
 31 32  1  0  0  0
 33 34  1  0  0  0
 34 35  2  0  0  0
 34 36  1  0  0  0
 34 37  1  0  0  0
 36 38  1  0  0  0
 37 39  1  0  0  0
 26 27  1  0  0  0
  6  8  1  0  0  0
  7  9  1  0  0  0
 19 20  1  0  0  0
 19 21  1  0  0  0
M  END
> <minimizedAffinity>
-8.33357

$$$$
