


 39 43  0  0  0  0  0  0  0  0999 V2000
   16.0570   10.0922   18.9719 C   0  0  0  0  0  0  0  0  0  0  0  0
   15.1877   11.3201   18.9164 C   0  0  0  0  0  0  0  0  0  0  0  0
   14.0877   11.3845   19.7866 C   0  0  0  0  0  0  0  0  0  0  0  0
   13.2550   12.5054   19.8237 C   0  0  0  0  0  0  0  0  0  0  0  0
   13.5210   13.6006   19.0102 C   0  0  0  0  0  0  0  0  0  0  0  0
   14.5972   13.5263   18.1269 C   0  0  0  0  0  0  0  0  0  0  0  0
   15.4093   12.3764   18.0107 C   0  0  0  0  0  0  0  0  0  0  0  0
   12.7619   14.7949   19.0273 N   0  0  0  0  0  0  0  0  0  0  0  0
   12.0721   15.3354   17.9609 C   0  0  0  0  0  0  0  0  0  0  0  0
   12.0622   14.9141   16.8066 O   0  0  0  0  0  0  0  0  0  0  0  0
   12.8285   15.3491   19.8730 H   0  0  0  0  0  0  0  0  0  0  0  0
   11.3313   16.5984   18.2407 C   0  0  0  0  0  0  0  0  0  0  0  0
   10.8811   17.3444   17.1462 C   0  0  0  0  0  0  0  0  0  0  0  0
   10.1303   18.4999   17.3466 C   0  0  0  0  0  0  0  0  0  0  0  0
    9.7917   18.9109   18.6453 C   0  0  0  0  0  0  0  0  0  0  0  0
   10.2522   18.1627   19.7393 C   0  0  0  0  0  0  0  0  0  0  0  0
   11.0165   17.0081   19.5426 C   0  0  0  0  0  0  0  0  0  0  0  0
    8.8482   20.0847   18.8356 C   0  0  0  0  0  0  0  0  0  0  0  0
    8.7023   20.4404   20.2530 N   0  0  0  0  0  0  0  0  0  0  0  0
    9.0409   21.8525   20.5203 C   0  0  0  0  0  0  0  0  0  0  0  0
    8.9137   22.1920   22.0219 C   0  0  0  0  0  0  0  0  0  0  0  0
    7.5904   21.9023   22.6085 N   0  0  0  0  0  0  0  0  0  0  0  0
    7.2021   20.5203   22.2588 C   0  0  0  0  0  0  0  0  0  0  0  0
    7.3518   20.1480   20.7602 C   0  0  0  0  0  0  0  0  0  0  0  0
    6.5911   22.8741   22.1750 C   0  0  0  0  0  0  0  0  0  0  0  0
   16.3812   12.2924   16.9943 N   0  0  0  0  0  0  0  0  0  0  0  0
   16.0966   12.5071   16.0501 H   0  0  0  0  0  0  0  0  0  0  0  0
   17.7622   12.5006   17.1026 C   0  0  0  0  0  0  0  0  0  0  0  0
   18.2363   12.8718   18.2965 N   0  0  0  0  0  0  0  0  0  0  0  0
   19.5748   13.0039   18.4040 C   0  0  0  0  0  0  0  0  0  0  0  0
   20.4582   12.7324   17.3842 C   0  0  0  0  0  0  0  0  0  0  0  0
   19.8960   12.3294   16.1931 C   0  0  0  0  0  0  0  0  0  0  0  0
   18.5577   12.2457   16.0552 N   0  0  0  0  0  0  0  0  0  0  0  0
   20.6600   11.9001   15.0078 C   0  0  0  0  0  0  0  0  0  0  0  0
   22.0376   12.1650   14.8989 C   0  0  0  0  0  0  0  0  0  0  0  0
   22.7561   11.7865   13.7668 C   0  0  0  0  0  0  0  0  0  0  0  0
   22.0774   11.1389   12.7532 C   0  0  0  0  0  0  0  0  0  0  0  0
   20.7611   10.8449   12.8066 N   0  0  0  0  0  0  0  0  0  0  0  0
   20.0939   11.2280   13.9255 C   0  0  0  0  0  0  0  0  0  0  0  0
  1  2  1  0  0  0
  2  3  1  0  0  0
  2  7  2  0  0  0
  3  4  2  0  0  0
  4  5  1  0  0  0
  5  6  2  0  0  0
  5  8  1  0  0  0
  6  7  1  0  0  0
  7 26  1  0  0  0
 26 28  1  0  0  0
 26 27  1  0  0  0
 28 29  1  0  0  0
 28 33  2  0  0  0
 29 30  2  0  0  0
 30 31  1  0  0  0
 31 32  2  0  0  0
 32 33  1  0  0  0
 32 34  1  0  0  0
 34 35  1  0  0  0
 34 39  2  0  0  0
 35 36  2  0  0  0
 36 37  1  0  0  0
 37 38  2  0  0  0
 38 39  1  0  0  0
  8  9  1  0  0  0
  8 11  1  0  0  0
  9 10  2  0  0  0
  9 12  1  0  0  0
 12 13  1  0  0  0
 12 17  2  0  0  0
 13 14  2  0  0  0
 14 15  1  0  0  0
 15 16  2  0  0  0
 15 18  1  0  0  0
 16 17  1  0  0  0
 18 19  1  0  0  0
 19 20  1  0  0  0
 19 24  1  0  0  0
 20 21  1  0  0  0
 21 22  1  0  0  0
 22 23  1  0  0  0
 22 25  1  0  0  0
 23 24  1  0  0  0
M  END
> <minimizedAffinity>
-11.91339

$$$$



 39 43  0  0  0  0  0  0  0  0999 V2000
   16.2332   10.3460   19.2662 C   0  0  0  0  0  0  0  0  0  0  0  0
   15.2975   11.3861   18.7102 C   0  0  0  0  0  0  0  0  0  0  0  0
   14.0968   11.6227   19.3985 C   0  0  0  0  0  0  0  0  0  0  0  0
   13.1930   12.5974   18.9692 C   0  0  0  0  0  0  0  0  0  0  0  0
   13.4836   13.3782   17.8565 C   0  0  0  0  0  0  0  0  0  0  0  0
   14.6631   13.1255   17.1573 C   0  0  0  0  0  0  0  0  0  0  0  0
   15.5582   12.0949   17.5208 C   0  0  0  0  0  0  0  0  0  0  0  0
   12.6503   14.4227   17.3902 N   0  0  0  0  0  0  0  0  0  0  0  0
   12.1780   15.4819   18.1388 C   0  0  0  0  0  0  0  0  0  0  0  0
   12.3384   15.6549   19.3447 O   0  0  0  0  0  0  0  0  0  0  0  0
   12.2870   14.3127   16.4507 H   0  0  0  0  0  0  0  0  0  0  0  0
   11.3277   16.4644   17.4080 C   0  0  0  0  0  0  0  0  0  0  0  0
   10.2332   17.0096   18.0878 C   0  0  0  0  0  0  0  0  0  0  0  0
    9.4404   17.9779   17.4773 C   0  0  0  0  0  0  0  0  0  0  0  0
    9.7484   18.4389   16.1878 C   0  0  0  0  0  0  0  0  0  0  0  0
   10.8431   17.8833   15.5082 C   0  0  0  0  0  0  0  0  0  0  0  0
   11.6347   16.9019   16.1133 C   0  0  0  0  0  0  0  0  0  0  0  0
    8.9646   19.5993   15.6019 C   0  0  0  0  0  0  0  0  0  0  0  0
    8.5687   20.5646   16.6356 N   0  0  0  0  0  0  0  0  0  0  0  0
    7.2712   20.2300   17.2557 C   0  0  0  0  0  0  0  0  0  0  0  0
    6.8607   21.2784   18.3133 C   0  0  0  0  0  0  0  0  0  0  0  0
    7.8551   21.4962   19.3824 N   0  0  0  0  0  0  0  0  0  0  0  0
    9.1774   21.7332   18.7672 C   0  0  0  0  0  0  0  0  0  0  0  0
    9.5963   20.7095   17.6793 C   0  0  0  0  0  0  0  0  0  0  0  0
    7.8840   20.3772   20.3193 C   0  0  0  0  0  0  0  0  0  0  0  0
   16.6514   11.7774   16.6907 N   0  0  0  0  0  0  0  0  0  0  0  0
   16.4672   11.6012   15.7142 H   0  0  0  0  0  0  0  0  0  0  0  0
   17.9844   12.1858   16.8269 C   0  0  0  0  0  0  0  0  0  0  0  0
   18.3506   12.7075   18.0025 N   0  0  0  0  0  0  0  0  0  0  0  0
   19.6521   13.0347   18.1425 C   0  0  0  0  0  0  0  0  0  0  0  0
   20.6078   12.8158   17.1766 C   0  0  0  0  0  0  0  0  0  0  0  0
   20.1587   12.2505   16.0037 C   0  0  0  0  0  0  0  0  0  0  0  0
   18.8520   11.9689   15.8295 N   0  0  0  0  0  0  0  0  0  0  0  0
   21.0252   11.8467   14.8815 C   0  0  0  0  0  0  0  0  0  0  0  0
   22.4124   12.0791   14.9175 C   0  0  0  0  0  0  0  0  0  0  0  0
   23.2296   11.7252   13.8460 C   0  0  0  0  0  0  0  0  0  0  0  0
   22.6389   11.1351   12.7459 C   0  0  0  0  0  0  0  0  0  0  0  0
   21.3174   10.8741   12.6595 N   0  0  0  0  0  0  0  0  0  0  0  0
   20.5527   11.2317   13.7230 C   0  0  0  0  0  0  0  0  0  0  0  0
  1  2  1  0  0  0
  2  3  1  0  0  0
  2  7  2  0  0  0
  3  4  2  0  0  0
  4  5  1  0  0  0
  5  6  2  0  0  0
  5  8  1  0  0  0
  6  7  1  0  0  0
  7 26  1  0  0  0
 26 28  1  0  0  0
 26 27  1  0  0  0
 28 29  1  0  0  0
 28 33  2  0  0  0
 29 30  2  0  0  0
 30 31  1  0  0  0
 31 32  2  0  0  0
 32 33  1  0  0  0
 32 34  1  0  0  0
 34 35  1  0  0  0
 34 39  2  0  0  0
 35 36  2  0  0  0
 36 37  1  0  0  0
 37 38  2  0  0  0
 38 39  1  0  0  0
  8  9  1  0  0  0
  8 11  1  0  0  0
  9 10  2  0  0  0
  9 12  1  0  0  0
 12 13  1  0  0  0
 12 17  2  0  0  0
 13 14  2  0  0  0
 14 15  1  0  0  0
 15 16  2  0  0  0
 15 18  1  0  0  0
 16 17  1  0  0  0
 18 19  1  0  0  0
 19 20  1  0  0  0
 19 24  1  0  0  0
 20 21  1  0  0  0
 21 22  1  0  0  0
 22 23  1  0  0  0
 22 25  1  0  0  0
 23 24  1  0  0  0
M  END
> <minimizedAffinity>
-11.18370

$$$$



 39 43  0  0  0  0  0  0  0  0999 V2000
   16.8497   10.2542   19.3331 C   0  0  0  0  0  0  0  0  0  0  0  0
   15.9228   11.4296   19.1731 C   0  0  0  0  0  0  0  0  0  0  0  0
   14.6267   11.3192   19.7015 C   0  0  0  0  0  0  0  0  0  0  0  0
   13.7193   12.3786   19.6281 C   0  0  0  0  0  0  0  0  0  0  0  0
   14.0979   13.5841   19.0490 C   0  0  0  0  0  0  0  0  0  0  0  0
   15.3757   13.6852   18.5004 C   0  0  0  0  0  0  0  0  0  0  0  0
   16.2875   12.6063   18.4893 C   0  0  0  0  0  0  0  0  0  0  0  0
   13.2600   14.7228   18.9854 N   0  0  0  0  0  0  0  0  0  0  0  0
   12.4301   15.0643   17.9366 C   0  0  0  0  0  0  0  0  0  0  0  0
   12.3358   14.4821   16.8585 O   0  0  0  0  0  0  0  0  0  0  0  0
   13.3701   15.3954   19.7352 H   0  0  0  0  0  0  0  0  0  0  0  0
   11.6314   16.3095   18.1203 C   0  0  0  0  0  0  0  0  0  0  0  0
   11.2315   17.0010   16.9718 C   0  0  0  0  0  0  0  0  0  0  0  0
   10.4317   18.1357   17.0796 C   0  0  0  0  0  0  0  0  0  0  0  0
    9.9936   18.5793   18.3373 C   0  0  0  0  0  0  0  0  0  0  0  0
   10.4039   17.8860   19.4860 C   0  0  0  0  0  0  0  0  0  0  0  0
   11.2169   16.7528   19.3827 C   0  0  0  0  0  0  0  0  0  0  0  0
    9.0017   19.7253   18.4216 C   0  0  0  0  0  0  0  0  0  0  0  0
    8.9304   20.2835   19.7782 N   0  0  0  0  0  0  0  0  0  0  0  0
    8.6701   21.7369   19.7797 C   0  0  0  0  0  0  0  0  0  0  0  0
    8.6349   22.3055   21.2155 C   0  0  0  0  0  0  0  0  0  0  0  0
    7.6649   21.6491   22.1139 N   0  0  0  0  0  0  0  0  0  0  0  0
    7.8558   20.1858   22.0400 C   0  0  0  0  0  0  0  0  0  0  0  0
    7.9255   19.5972   20.6063 C   0  0  0  0  0  0  0  0  0  0  0  0
    6.2944   22.0355   21.7921 C   0  0  0  0  0  0  0  0  0  0  0  0
   17.5023   12.7096   17.7834 N   0  0  0  0  0  0  0  0  0  0  0  0
   18.3528   12.8039   18.3186 H   0  0  0  0  0  0  0  0  0  0  0  0
   17.8206   12.1682   16.5313 C   0  0  0  0  0  0  0  0  0  0  0  0
   16.8080   11.9162   15.6950 N   0  0  0  0  0  0  0  0  0  0  0  0
   17.1333   11.4579   14.4684 C   0  0  0  0  0  0  0  0  0  0  0  0
   18.4267   11.2897   14.0288 C   0  0  0  0  0  0  0  0  0  0  0  0
   19.4152   11.5956   14.9379 C   0  0  0  0  0  0  0  0  0  0  0  0
   19.1040   12.0024   16.1848 N   0  0  0  0  0  0  0  0  0  0  0  0
   20.8596   11.5771   14.6443 C   0  0  0  0  0  0  0  0  0  0  0  0
   21.3455   11.0570   13.4306 C   0  0  0  0  0  0  0  0  0  0  0  0
   22.7120   11.0113   13.1628 C   0  0  0  0  0  0  0  0  0  0  0  0
   23.5787   11.4954   14.1230 C   0  0  0  0  0  0  0  0  0  0  0  0
   23.1717   12.0188   15.2988 N   0  0  0  0  0  0  0  0  0  0  0  0
   21.8330   12.0479   15.5244 C   0  0  0  0  0  0  0  0  0  0  0  0
  1  2  1  0  0  0
  2  3  1  0  0  0
  2  7  2  0  0  0
  3  4  2  0  0  0
  4  5  1  0  0  0
  5  6  2  0  0  0
  5  8  1  0  0  0
  6  7  1  0  0  0
  7 26  1  0  0  0
 26 28  1  0  0  0
 26 27  1  0  0  0
 28 29  1  0  0  0
 28 33  2  0  0  0
 29 30  2  0  0  0
 30 31  1  0  0  0
 31 32  2  0  0  0
 32 33  1  0  0  0
 32 34  1  0  0  0
 34 35  1  0  0  0
 34 39  2  0  0  0
 35 36  2  0  0  0
 36 37  1  0  0  0
 37 38  2  0  0  0
 38 39  1  0  0  0
  8  9  1  0  0  0
  8 11  1  0  0  0
  9 10  2  0  0  0
  9 12  1  0  0  0
 12 13  1  0  0  0
 12 17  2  0  0  0
 13 14  2  0  0  0
 14 15  1  0  0  0
 15 16  2  0  0  0
 15 18  1  0  0  0
 16 17  1  0  0  0
 18 19  1  0  0  0
 19 20  1  0  0  0
 19 24  1  0  0  0
 20 21  1  0  0  0
 21 22  1  0  0  0
 22 23  1  0  0  0
 22 25  1  0  0  0
 23 24  1  0  0  0
M  END
> <minimizedAffinity>
-10.43111

$$$$



 39 43  0  0  0  0  0  0  0  0999 V2000
    6.1259   20.4936   22.7149 C   0  0  0  0  0  0  0  0  0  0  0  0
    7.3302   19.9289   23.4199 C   0  0  0  0  0  0  0  0  0  0  0  0
    7.1458   19.3899   24.7031 C   0  0  0  0  0  0  0  0  0  0  0  0
    8.2046   18.8124   25.4079 C   0  0  0  0  0  0  0  0  0  0  0  0
    9.4675   18.7355   24.8324 C   0  0  0  0  0  0  0  0  0  0  0  0
    9.6572   19.2944   23.5693 C   0  0  0  0  0  0  0  0  0  0  0  0
    8.6253   19.9543   22.8655 C   0  0  0  0  0  0  0  0  0  0  0  0
   10.5781   18.1170   25.4544 N   0  0  0  0  0  0  0  0  0  0  0  0
   11.3570   18.6617   26.4554 C   0  0  0  0  0  0  0  0  0  0  0  0
   11.2646   19.7958   26.9194 O   0  0  0  0  0  0  0  0  0  0  0  0
   10.8845   17.2427   25.0442 H   0  0  0  0  0  0  0  0  0  0  0  0
   12.4632   17.7984   26.9588 C   0  0  0  0  0  0  0  0  0  0  0  0
   13.6414   18.4277   27.3748 C   0  0  0  0  0  0  0  0  0  0  0  0
   14.6846   17.6779   27.9119 C   0  0  0  0  0  0  0  0  0  0  0  0
   14.5536   16.2892   28.0697 C   0  0  0  0  0  0  0  0  0  0  0  0
   13.3725   15.6628   27.6440 C   0  0  0  0  0  0  0  0  0  0  0  0
   12.3271   16.4109   27.0932 C   0  0  0  0  0  0  0  0  0  0  0  0
   15.6390   15.5138   28.7942 C   0  0  0  0  0  0  0  0  0  0  0  0
   16.6679   15.0245   27.8676 N   0  0  0  0  0  0  0  0  0  0  0  0
   17.7415   16.0124   27.6405 C   0  0  0  0  0  0  0  0  0  0  0  0
   18.7916   15.4883   26.6361 C   0  0  0  0  0  0  0  0  0  0  0  0
   19.4053   14.1973   27.0047 N   0  0  0  0  0  0  0  0  0  0  0  0
   18.3348   13.2322   27.3299 C   0  0  0  0  0  0  0  0  0  0  0  0
   17.2517   13.7489   28.3131 C   0  0  0  0  0  0  0  0  0  0  0  0
   20.3510   14.3519   28.1059 C   0  0  0  0  0  0  0  0  0  0  0  0
    8.9076   20.6395   21.6673 N   0  0  0  0  0  0  0  0  0  0  0  0
    9.6828   21.2858   21.6645 H   0  0  0  0  0  0  0  0  0  0  0  0
    8.6808   20.2088   20.3539 C   0  0  0  0  0  0  0  0  0  0  0  0
    7.7780   20.8823   19.6331 N   0  0  0  0  0  0  0  0  0  0  0  0
    7.6178   20.4993   18.3493 C   0  0  0  0  0  0  0  0  0  0  0  0
    8.3563   19.5072   17.7454 C   0  0  0  0  0  0  0  0  0  0  0  0
    9.2849   18.8779   18.5446 C   0  0  0  0  0  0  0  0  0  0  0  0
    9.4176   19.2131   19.8435 N   0  0  0  0  0  0  0  0  0  0  0  0
   10.2411   17.8584   18.0764 C   0  0  0  0  0  0  0  0  0  0  0  0
   10.5229   17.7045   16.7064 C   0  0  0  0  0  0  0  0  0  0  0  0
   11.4038   16.7224   16.2586 C   0  0  0  0  0  0  0  0  0  0  0  0
   11.9972   15.9041   17.1998 C   0  0  0  0  0  0  0  0  0  0  0  0
   11.7775   16.0130   18.5271 N   0  0  0  0  0  0  0  0  0  0  0  0
   10.9141   16.9820   18.9265 C   0  0  0  0  0  0  0  0  0  0  0  0
  1  2  1  0  0  0
  2  3  1  0  0  0
  2  7  2  0  0  0
  3  4  2  0  0  0
  4  5  1  0  0  0
  5  6  2  0  0  0
  5  8  1  0  0  0
  6  7  1  0  0  0
  7 26  1  0  0  0
 26 28  1  0  0  0
 26 27  1  0  0  0
 28 29  1  0  0  0
 28 33  2  0  0  0
 29 30  2  0  0  0
 30 31  1  0  0  0
 31 32  2  0  0  0
 32 33  1  0  0  0
 32 34  1  0  0  0
 34 35  1  0  0  0
 34 39  2  0  0  0
 35 36  2  0  0  0
 36 37  1  0  0  0
 37 38  2  0  0  0
 38 39  1  0  0  0
  8  9  1  0  0  0
  8 11  1  0  0  0
  9 10  2  0  0  0
  9 12  1  0  0  0
 12 13  1  0  0  0
 12 17  2  0  0  0
 13 14  2  0  0  0
 14 15  1  0  0  0
 15 16  2  0  0  0
 15 18  1  0  0  0
 16 17  1  0  0  0
 18 19  1  0  0  0
 19 20  1  0  0  0
 19 24  1  0  0  0
 20 21  1  0  0  0
 21 22  1  0  0  0
 22 23  1  0  0  0
 22 25  1  0  0  0
 23 24  1  0  0  0
M  END
> <minimizedAffinity>
-10.14344

$$$$



 39 43  0  0  0  0  0  0  0  0999 V2000
    8.7441   18.7603   17.2055 C   0  0  0  0  0  0  0  0  0  0  0  0
    9.9151   17.8205   17.3134 C   0  0  0  0  0  0  0  0  0  0  0  0
   10.5827   17.4662   16.1302 C   0  0  0  0  0  0  0  0  0  0  0  0
   11.7013   16.6298   16.1494 C   0  0  0  0  0  0  0  0  0  0  0  0
   12.1952   16.1511   17.3572 C   0  0  0  0  0  0  0  0  0  0  0  0
   11.5168   16.4808   18.5298 C   0  0  0  0  0  0  0  0  0  0  0  0
   10.3382   17.2595   18.5347 C   0  0  0  0  0  0  0  0  0  0  0  0
   13.3544   15.3469   17.4688 N   0  0  0  0  0  0  0  0  0  0  0  0
   13.5577   14.3364   18.3869 C   0  0  0  0  0  0  0  0  0  0  0  0
   12.8034   14.0172   19.3030 O   0  0  0  0  0  0  0  0  0  0  0  0
   14.1393   15.6195   16.8890 H   0  0  0  0  0  0  0  0  0  0  0  0
   14.8623   13.6219   18.2867 C   0  0  0  0  0  0  0  0  0  0  0  0
   15.3070   13.2557   17.0119 C   0  0  0  0  0  0  0  0  0  0  0  0
   16.5464   12.6417   16.8514 C   0  0  0  0  0  0  0  0  0  0  0  0
   17.3746   12.4120   17.9612 C   0  0  0  0  0  0  0  0  0  0  0  0
   16.9201   12.7749   19.2381 C   0  0  0  0  0  0  0  0  0  0  0  0
   15.6709   13.3810   19.4048 C   0  0  0  0  0  0  0  0  0  0  0  0
   18.7806   11.8814   17.7473 C   0  0  0  0  0  0  0  0  0  0  0  0
   19.2997   12.2372   16.4204 N   0  0  0  0  0  0  0  0  0  0  0  0
   20.6720   12.7792   16.4757 C   0  0  0  0  0  0  0  0  0  0  0  0
   21.1814   13.1783   15.0731 C   0  0  0  0  0  0  0  0  0  0  0  0
   21.1395   12.0947   14.0716 N   0  0  0  0  0  0  0  0  0  0  0  0
   19.7950   11.4822   14.0827 C   0  0  0  0  0  0  0  0  0  0  0  0
   19.2505   11.1020   15.4848 C   0  0  0  0  0  0  0  0  0  0  0  0
   22.1885   11.1078   14.3100 C   0  0  0  0  0  0  0  0  0  0  0  0
    9.6040   17.4301   19.7250 N   0  0  0  0  0  0  0  0  0  0  0  0
    9.1932   16.6110   20.1479 H   0  0  0  0  0  0  0  0  0  0  0  0
    9.7848   18.4018   20.7175 C   0  0  0  0  0  0  0  0  0  0  0  0
    9.0535   19.5177   20.6261 N   0  0  0  0  0  0  0  0  0  0  0  0
    9.1884   20.4155   21.6243 C   0  0  0  0  0  0  0  0  0  0  0  0
    9.9837   20.2211   22.7306 C   0  0  0  0  0  0  0  0  0  0  0  0
   10.6851   19.0363   22.7661 C   0  0  0  0  0  0  0  0  0  0  0  0
   10.6020   18.1545   21.7499 N   0  0  0  0  0  0  0  0  0  0  0  0
   11.5173   18.5877   23.8972 C   0  0  0  0  0  0  0  0  0  0  0  0
   10.9866   18.5015   25.1975 C   0  0  0  0  0  0  0  0  0  0  0  0
   11.7786   18.1062   26.2734 C   0  0  0  0  0  0  0  0  0  0  0  0
   13.1018   17.7968   26.0268 C   0  0  0  0  0  0  0  0  0  0  0  0
   13.6631   17.8467   24.8002 N   0  0  0  0  0  0  0  0  0  0  0  0
   12.8606   18.2351   23.7760 C   0  0  0  0  0  0  0  0  0  0  0  0
  1  2  1  0  0  0
  2  3  1  0  0  0
  2  7  2  0  0  0
  3  4  2  0  0  0
  4  5  1  0  0  0
  5  6  2  0  0  0
  5  8  1  0  0  0
  6  7  1  0  0  0
  7 26  1  0  0  0
 26 28  1  0  0  0
 26 27  1  0  0  0
 28 29  1  0  0  0
 28 33  2  0  0  0
 29 30  2  0  0  0
 30 31  1  0  0  0
 31 32  2  0  0  0
 32 33  1  0  0  0
 32 34  1  0  0  0
 34 35  1  0  0  0
 34 39  2  0  0  0
 35 36  2  0  0  0
 36 37  1  0  0  0
 37 38  2  0  0  0
 38 39  1  0  0  0
  8  9  1  0  0  0
  8 11  1  0  0  0
  9 10  2  0  0  0
  9 12  1  0  0  0
 12 13  1  0  0  0
 12 17  2  0  0  0
 13 14  2  0  0  0
 14 15  1  0  0  0
 15 16  2  0  0  0
 15 18  1  0  0  0
 16 17  1  0  0  0
 18 19  1  0  0  0
 19 20  1  0  0  0
 19 24  1  0  0  0
 20 21  1  0  0  0
 21 22  1  0  0  0
 22 23  1  0  0  0
 22 25  1  0  0  0
 23 24  1  0  0  0
M  END
> <minimizedAffinity>
-9.88247

$$$$



 39 43  0  0  0  0  0  0  0  0999 V2000
   16.3139    9.9671   18.6659 C   0  0  0  0  0  0  0  0  0  0  0  0
   15.4081   11.1638   18.7839 C   0  0  0  0  0  0  0  0  0  0  0  0
   14.3310   11.0848   19.6810 C   0  0  0  0  0  0  0  0  0  0  0  0
   13.4674   12.1652   19.8766 C   0  0  0  0  0  0  0  0  0  0  0  0
   13.6791   13.3604   19.1993 C   0  0  0  0  0  0  0  0  0  0  0  0
   14.7324   13.4304   18.2885 C   0  0  0  0  0  0  0  0  0  0  0  0
   15.5741   12.3303   18.0114 C   0  0  0  0  0  0  0  0  0  0  0  0
   12.8865   14.5185   19.3825 N   0  0  0  0  0  0  0  0  0  0  0  0
   12.2825   15.2567   18.3847 C   0  0  0  0  0  0  0  0  0  0  0  0
   12.3920   15.0781   17.1739 O   0  0  0  0  0  0  0  0  0  0  0  0
   12.8579   14.8903   20.3246 H   0  0  0  0  0  0  0  0  0  0  0  0
   11.4816   16.4289   18.8395 C   0  0  0  0  0  0  0  0  0  0  0  0
   10.4516   16.8760   18.0050 C   0  0  0  0  0  0  0  0  0  0  0  0
    9.6309   17.9270   18.4060 C   0  0  0  0  0  0  0  0  0  0  0  0
    9.8084   18.5277   19.6621 C   0  0  0  0  0  0  0  0  0  0  0  0
   10.8476   18.0799   20.4916 C   0  0  0  0  0  0  0  0  0  0  0  0
   11.6815   17.0324   20.0876 C   0  0  0  0  0  0  0  0  0  0  0  0
    8.8108   19.5667   20.1413 C   0  0  0  0  0  0  0  0  0  0  0  0
    8.3836   20.4532   19.0511 N   0  0  0  0  0  0  0  0  0  0  0  0
    9.5204   20.9724   18.2649 C   0  0  0  0  0  0  0  0  0  0  0  0
    9.0479   21.9291   17.1479 C   0  0  0  0  0  0  0  0  0  0  0  0
    8.0553   21.3505   16.2210 N   0  0  0  0  0  0  0  0  0  0  0  0
    6.9627   20.7408   17.0069 C   0  0  0  0  0  0  0  0  0  0  0  0
    7.4157   19.8004   18.1547 C   0  0  0  0  0  0  0  0  0  0  0  0
    8.6722   20.3900   15.3112 C   0  0  0  0  0  0  0  0  0  0  0  0
   16.5199   12.4037   16.9697 N   0  0  0  0  0  0  0  0  0  0  0  0
   16.2169   12.7772   16.0824 H   0  0  0  0  0  0  0  0  0  0  0  0
   17.9066   12.5715   17.0746 C   0  0  0  0  0  0  0  0  0  0  0  0
   18.3945   12.9266   18.2679 N   0  0  0  0  0  0  0  0  0  0  0  0
   19.7366   13.0195   18.3719 C   0  0  0  0  0  0  0  0  0  0  0  0
   20.6090   12.7243   17.3491 C   0  0  0  0  0  0  0  0  0  0  0  0
   20.0321   12.3400   16.1589 C   0  0  0  0  0  0  0  0  0  0  0  0
   18.6915   12.2955   16.0245 N   0  0  0  0  0  0  0  0  0  0  0  0
   20.7800   11.8908   14.9707 C   0  0  0  0  0  0  0  0  0  0  0  0
   22.1631   12.1221   14.8553 C   0  0  0  0  0  0  0  0  0  0  0  0
   22.8671   11.7249   13.7205 C   0  0  0  0  0  0  0  0  0  0  0  0
   22.1683   11.0928   12.7108 C   0  0  0  0  0  0  0  0  0  0  0  0
   20.8455   10.8308   12.7705 N   0  0  0  0  0  0  0  0  0  0  0  0
   20.1929   11.2314   13.8918 C   0  0  0  0  0  0  0  0  0  0  0  0
  1  2  1  0  0  0
  2  3  1  0  0  0
  2  7  2  0  0  0
  3  4  2  0  0  0
  4  5  1  0  0  0
  5  6  2  0  0  0
  5  8  1  0  0  0
  6  7  1  0  0  0
  7 26  1  0  0  0
 26 28  1  0  0  0
 26 27  1  0  0  0
 28 29  1  0  0  0
 28 33  2  0  0  0
 29 30  2  0  0  0
 30 31  1  0  0  0
 31 32  2  0  0  0
 32 33  1  0  0  0
 32 34  1  0  0  0
 34 35  1  0  0  0
 34 39  2  0  0  0
 35 36  2  0  0  0
 36 37  1  0  0  0
 37 38  2  0  0  0
 38 39  1  0  0  0
  8  9  1  0  0  0
  8 11  1  0  0  0
  9 10  2  0  0  0
  9 12  1  0  0  0
 12 13  1  0  0  0
 12 17  2  0  0  0
 13 14  2  0  0  0
 14 15  1  0  0  0
 15 16  2  0  0  0
 15 18  1  0  0  0
 16 17  1  0  0  0
 18 19  1  0  0  0
 19 20  1  0  0  0
 19 24  1  0  0  0
 20 21  1  0  0  0
 21 22  1  0  0  0
 22 23  1  0  0  0
 22 25  1  0  0  0
 23 24  1  0  0  0
M  END
> <minimizedAffinity>
-9.65155

$$$$



 39 43  0  0  0  0  0  0  0  0999 V2000
    9.0568   21.2562   23.1868 C   0  0  0  0  0  0  0  0  0  0  0  0
   10.0351   20.5883   24.1158 C   0  0  0  0  0  0  0  0  0  0  0  0
    9.5188   19.7731   25.1357 C   0  0  0  0  0  0  0  0  0  0  0  0
   10.3609   19.0882   26.0150 C   0  0  0  0  0  0  0  0  0  0  0  0
   11.7407   19.1809   25.8758 C   0  0  0  0  0  0  0  0  0  0  0  0
   12.2538   20.0112   24.8801 C   0  0  0  0  0  0  0  0  0  0  0  0
   11.4285   20.7771   24.0270 C   0  0  0  0  0  0  0  0  0  0  0  0
   12.6615   18.4760   26.6871 N   0  0  0  0  0  0  0  0  0  0  0  0
   12.7146   17.1071   26.8560 C   0  0  0  0  0  0  0  0  0  0  0  0
   11.9306   16.2817   26.3933 O   0  0  0  0  0  0  0  0  0  0  0  0
   13.2589   19.0452   27.2751 H   0  0  0  0  0  0  0  0  0  0  0  0
   13.7940   16.6057   27.7536 C   0  0  0  0  0  0  0  0  0  0  0  0
   13.6162   15.3513   28.3469 C   0  0  0  0  0  0  0  0  0  0  0  0
   14.6179   14.8049   29.1449 C   0  0  0  0  0  0  0  0  0  0  0  0
   15.8269   15.4917   29.3373 C   0  0  0  0  0  0  0  0  0  0  0  0
   15.9967   16.7526   28.7456 C   0  0  0  0  0  0  0  0  0  0  0  0
   14.9882   17.3100   27.9531 C   0  0  0  0  0  0  0  0  0  0  0  0
   16.9611   14.8134   30.0841 C   0  0  0  0  0  0  0  0  0  0  0  0
   17.9757   14.2819   29.1649 N   0  0  0  0  0  0  0  0  0  0  0  0
   17.3888   13.7561   27.9162 C   0  0  0  0  0  0  0  0  0  0  0  0
   18.4717   13.1714   26.9825 C   0  0  0  0  0  0  0  0  0  0  0  0
   19.5586   14.1088   26.6377 N   0  0  0  0  0  0  0  0  0  0  0  0
   20.0832   14.7136   27.8795 C   0  0  0  0  0  0  0  0  0  0  0  0
   19.0104   15.2793   28.8469 C   0  0  0  0  0  0  0  0  0  0  0  0
   19.1075   15.1217   25.6881 C   0  0  0  0  0  0  0  0  0  0  0  0
   11.9964   21.7191   23.1465 N   0  0  0  0  0  0  0  0  0  0  0  0
   11.4351   22.0386   22.3710 H   0  0  0  0  0  0  0  0  0  0  0  0
   12.9596   22.6950   23.4324 C   0  0  0  0  0  0  0  0  0  0  0  0
   14.0258   22.7609   22.6279 N   0  0  0  0  0  0  0  0  0  0  0  0
   14.9122   23.7479   22.8742 C   0  0  0  0  0  0  0  0  0  0  0  0
   14.7510   24.6981   23.8567 C   0  0  0  0  0  0  0  0  0  0  0  0
   13.6151   24.5801   24.6267 C   0  0  0  0  0  0  0  0  0  0  0  0
   12.7485   23.5670   24.4273 N   0  0  0  0  0  0  0  0  0  0  0  0
   13.2024   25.5410   25.6656 C   0  0  0  0  0  0  0  0  0  0  0  0
   14.1548   26.1799   26.4808 C   0  0  0  0  0  0  0  0  0  0  0  0
   13.7659   27.0662   27.4830 C   0  0  0  0  0  0  0  0  0  0  0  0
   12.4159   27.3035   27.6522 C   0  0  0  0  0  0  0  0  0  0  0  0
   11.4575   26.7321   26.8927 N   0  0  0  0  0  0  0  0  0  0  0  0
   11.8740   25.8750   25.9253 C   0  0  0  0  0  0  0  0  0  0  0  0
  1  2  1  0  0  0
  2  3  1  0  0  0
  2  7  2  0  0  0
  3  4  2  0  0  0
  4  5  1  0  0  0
  5  6  2  0  0  0
  5  8  1  0  0  0
  6  7  1  0  0  0
  7 26  1  0  0  0
 26 28  1  0  0  0
 26 27  1  0  0  0
 28 29  1  0  0  0
 28 33  2  0  0  0
 29 30  2  0  0  0
 30 31  1  0  0  0
 31 32  2  0  0  0
 32 33  1  0  0  0
 32 34  1  0  0  0
 34 35  1  0  0  0
 34 39  2  0  0  0
 35 36  2  0  0  0
 36 37  1  0  0  0
 37 38  2  0  0  0
 38 39  1  0  0  0
  8  9  1  0  0  0
  8 11  1  0  0  0
  9 10  2  0  0  0
  9 12  1  0  0  0
 12 13  1  0  0  0
 12 17  2  0  0  0
 13 14  2  0  0  0
 14 15  1  0  0  0
 15 16  2  0  0  0
 15 18  1  0  0  0
 16 17  1  0  0  0
 18 19  1  0  0  0
 19 20  1  0  0  0
 19 24  1  0  0  0
 20 21  1  0  0  0
 21 22  1  0  0  0
 22 23  1  0  0  0
 22 25  1  0  0  0
 23 24  1  0  0  0
M  END
> <minimizedAffinity>
-9.45345

$$$$



 39 43  0  0  0  0  0  0  0  0999 V2000
    5.2064   21.6388   20.6905 C   0  0  0  0  0  0  0  0  0  0  0  0
    6.3523   21.3880   21.6342 C   0  0  0  0  0  0  0  0  0  0  0  0
    6.0465   21.0749   22.9682 C   0  0  0  0  0  0  0  0  0  0  0  0
    7.0508   20.7913   23.8967 C   0  0  0  0  0  0  0  0  0  0  0  0
    8.3842   20.7868   23.5043 C   0  0  0  0  0  0  0  0  0  0  0  0
    8.6900   21.1238   22.1864 C   0  0  0  0  0  0  0  0  0  0  0  0
    7.7026   21.4915   21.2454 C   0  0  0  0  0  0  0  0  0  0  0  0
    9.4561   20.4553   24.3668 N   0  0  0  0  0  0  0  0  0  0  0  0
   10.1623   19.2693   24.3677 C   0  0  0  0  0  0  0  0  0  0  0  0
    9.9326   18.2802   23.6756 O   0  0  0  0  0  0  0  0  0  0  0  0
    9.6397   21.1117   25.1166 H   0  0  0  0  0  0  0  0  0  0  0  0
   11.2635   19.1708   25.3678 C   0  0  0  0  0  0  0  0  0  0  0  0
   11.3988   17.9683   26.0698 C   0  0  0  0  0  0  0  0  0  0  0  0
   12.4463   17.7968   26.9710 C   0  0  0  0  0  0  0  0  0  0  0  0
   13.3935   18.8151   27.1617 C   0  0  0  0  0  0  0  0  0  0  0  0
   13.2484   20.0216   26.4602 C   0  0  0  0  0  0  0  0  0  0  0  0
   12.1909   20.2021   25.5630 C   0  0  0  0  0  0  0  0  0  0  0  0
   14.6089   18.5517   28.0321 C   0  0  0  0  0  0  0  0  0  0  0  0
   15.4237   17.4480   27.5080 N   0  0  0  0  0  0  0  0  0  0  0  0
   16.7267   17.9048   26.9849 C   0  0  0  0  0  0  0  0  0  0  0  0
   17.5493   16.7316   26.4079 C   0  0  0  0  0  0  0  0  0  0  0  0
   17.7804   15.6195   27.3507 N   0  0  0  0  0  0  0  0  0  0  0  0
   16.4902   15.2242   27.9526 C   0  0  0  0  0  0  0  0  0  0  0  0
   15.6331   16.3909   28.5106 C   0  0  0  0  0  0  0  0  0  0  0  0
   18.7668   15.9774   28.3655 C   0  0  0  0  0  0  0  0  0  0  0  0
    8.0757   21.9763   19.9763 N   0  0  0  0  0  0  0  0  0  0  0  0
    8.7107   22.7598   19.9382 H   0  0  0  0  0  0  0  0  0  0  0  0
    8.1761   21.2615   18.7758 C   0  0  0  0  0  0  0  0  0  0  0  0
    7.5918   21.7895   17.6951 N   0  0  0  0  0  0  0  0  0  0  0  0
    7.7530   21.1249   16.5320 C   0  0  0  0  0  0  0  0  0  0  0  0
    8.5132   19.9856   16.3967 C   0  0  0  0  0  0  0  0  0  0  0  0
    9.1052   19.5176   17.5489 C   0  0  0  0  0  0  0  0  0  0  0  0
    8.9083   20.1407   18.7280 N   0  0  0  0  0  0  0  0  0  0  0  0
   10.0323   18.3732   17.6105 C   0  0  0  0  0  0  0  0  0  0  0  0
   10.2044   17.6436   18.8012 C   0  0  0  0  0  0  0  0  0  0  0  0
   11.1016   16.5800   18.8704 C   0  0  0  0  0  0  0  0  0  0  0  0
   11.8168   16.2585   17.7335 C   0  0  0  0  0  0  0  0  0  0  0  0
   11.6842   16.9117   16.5597 N   0  0  0  0  0  0  0  0  0  0  0  0
   10.7999   17.9417   16.5296 C   0  0  0  0  0  0  0  0  0  0  0  0
  1  2  1  0  0  0
  2  3  1  0  0  0
  2  7  2  0  0  0
  3  4  2  0  0  0
  4  5  1  0  0  0
  5  6  2  0  0  0
  5  8  1  0  0  0
  6  7  1  0  0  0
  7 26  1  0  0  0
 26 28  1  0  0  0
 26 27  1  0  0  0
 28 29  1  0  0  0
 28 33  2  0  0  0
 29 30  2  0  0  0
 30 31  1  0  0  0
 31 32  2  0  0  0
 32 33  1  0  0  0
 32 34  1  0  0  0
 34 35  1  0  0  0
 34 39  2  0  0  0
 35 36  2  0  0  0
 36 37  1  0  0  0
 37 38  2  0  0  0
 38 39  1  0  0  0
  8  9  1  0  0  0
  8 11  1  0  0  0
  9 10  2  0  0  0
  9 12  1  0  0  0
 12 13  1  0  0  0
 12 17  2  0  0  0
 13 14  2  0  0  0
 14 15  1  0  0  0
 15 16  2  0  0  0
 15 18  1  0  0  0
 16 17  1  0  0  0
 18 19  1  0  0  0
 19 20  1  0  0  0
 19 24  1  0  0  0
 20 21  1  0  0  0
 21 22  1  0  0  0
 22 23  1  0  0  0
 22 25  1  0  0  0
 23 24  1  0  0  0
M  END
> <minimizedAffinity>
-9.44061

$$$$



 39 43  0  0  0  0  0  0  0  0999 V2000
    8.0167   20.1816   20.0427 C   0  0  0  0  0  0  0  0  0  0  0  0
    9.0258   19.0817   19.8467 C   0  0  0  0  0  0  0  0  0  0  0  0
    9.0359   18.4138   18.6117 C   0  0  0  0  0  0  0  0  0  0  0  0
    9.9655   17.4080   18.3371 C   0  0  0  0  0  0  0  0  0  0  0  0
   10.9255   17.0667   19.2826 C   0  0  0  0  0  0  0  0  0  0  0  0
   10.8990   17.7109   20.5188 C   0  0  0  0  0  0  0  0  0  0  0  0
    9.9231   18.6756   20.8542 C   0  0  0  0  0  0  0  0  0  0  0  0
   11.9364   16.1009   19.0628 N   0  0  0  0  0  0  0  0  0  0  0  0
   12.5551   15.8308   17.8588 C   0  0  0  0  0  0  0  0  0  0  0  0
   12.2822   16.3270   16.7683 O   0  0  0  0  0  0  0  0  0  0  0  0
   12.1371   15.4856   19.8424 H   0  0  0  0  0  0  0  0  0  0  0  0
   13.6064   14.7744   17.8925 C   0  0  0  0  0  0  0  0  0  0  0  0
   14.4139   14.6243   16.7600 C   0  0  0  0  0  0  0  0  0  0  0  0
   15.4521   13.6963   16.7573 C   0  0  0  0  0  0  0  0  0  0  0  0
   15.7183   12.9248   17.8994 C   0  0  0  0  0  0  0  0  0  0  0  0
   14.9005   13.0746   19.0296 C   0  0  0  0  0  0  0  0  0  0  0  0
   13.8494   13.9971   19.0321 C   0  0  0  0  0  0  0  0  0  0  0  0
   16.9447   12.0307   17.9280 C   0  0  0  0  0  0  0  0  0  0  0  0
   17.9150   12.4060   16.8913 N   0  0  0  0  0  0  0  0  0  0  0  0
   19.3127   12.2572   17.3434 C   0  0  0  0  0  0  0  0  0  0  0  0
   20.3124   12.6912   16.2486 C   0  0  0  0  0  0  0  0  0  0  0  0
   20.1543   11.9917   14.9584 N   0  0  0  0  0  0  0  0  0  0  0  0
   18.7356   12.0520   14.5500 C   0  0  0  0  0  0  0  0  0  0  0  0
   17.7122   11.6502   15.6447 C   0  0  0  0  0  0  0  0  0  0  0  0
   20.6402   10.6172   15.0344 C   0  0  0  0  0  0  0  0  0  0  0  0
    9.8431   19.1788   22.1677 N   0  0  0  0  0  0  0  0  0  0  0  0
    8.9900   19.0198   22.6830 H   0  0  0  0  0  0  0  0  0  0  0  0
   10.8868   19.3733   23.0814 C   0  0  0  0  0  0  0  0  0  0  0  0
   11.2535   18.3264   23.8282 N   0  0  0  0  0  0  0  0  0  0  0  0
   12.3034   18.5089   24.6557 C   0  0  0  0  0  0  0  0  0  0  0  0
   13.0299   19.6755   24.7299 C   0  0  0  0  0  0  0  0  0  0  0  0
   12.6082   20.6994   23.9109 C   0  0  0  0  0  0  0  0  0  0  0  0
   11.5276   20.5493   23.1191 N   0  0  0  0  0  0  0  0  0  0  0  0
   13.2973   21.9943   23.7643 C   0  0  0  0  0  0  0  0  0  0  0  0
   12.7569   23.0155   22.9612 C   0  0  0  0  0  0  0  0  0  0  0  0
   13.4206   24.2296   22.7974 C   0  0  0  0  0  0  0  0  0  0  0  0
   14.6252   24.4045   23.4498 C   0  0  0  0  0  0  0  0  0  0  0  0
   15.1858   23.4681   24.2440 N   0  0  0  0  0  0  0  0  0  0  0  0
   14.5101   22.2983   24.3810 C   0  0  0  0  0  0  0  0  0  0  0  0
  1  2  1  0  0  0
  2  3  1  0  0  0
  2  7  2  0  0  0
  3  4  2  0  0  0
  4  5  1  0  0  0
  5  6  2  0  0  0
  5  8  1  0  0  0
  6  7  1  0  0  0
  7 26  1  0  0  0
 26 28  1  0  0  0
 26 27  1  0  0  0
 28 29  1  0  0  0
 28 33  2  0  0  0
 29 30  2  0  0  0
 30 31  1  0  0  0
 31 32  2  0  0  0
 32 33  1  0  0  0
 32 34  1  0  0  0
 34 35  1  0  0  0
 34 39  2  0  0  0
 35 36  2  0  0  0
 36 37  1  0  0  0
 37 38  2  0  0  0
 38 39  1  0  0  0
  8  9  1  0  0  0
  8 11  1  0  0  0
  9 10  2  0  0  0
  9 12  1  0  0  0
 12 13  1  0  0  0
 12 17  2  0  0  0
 13 14  2  0  0  0
 14 15  1  0  0  0
 15 16  2  0  0  0
 15 18  1  0  0  0
 16 17  1  0  0  0
 18 19  1  0  0  0
 19 20  1  0  0  0
 19 24  1  0  0  0
 20 21  1  0  0  0
 21 22  1  0  0  0
 22 23  1  0  0  0
 22 25  1  0  0  0
 23 24  1  0  0  0
M  END
> <minimizedAffinity>
-9.39549

$$$$
