


 40 44  0  0  0  0  0  0  0  0999 V2000
   21.2050   15.9740   15.5430 C   0  0  0  0  0  0  0  0  0  0  0  0
   20.5542   16.7971   14.9076 O   0  0  0  0  0  0  0  0  0  0  0  0
   21.9111   16.2100   16.7162 N   0  0  0  0  0  0  0  0  0  0  0  0
   22.5540   15.4926   17.0262 H   0  0  0  0  0  0  0  0  0  0  0  0
   21.4380   10.6319   13.2974 C   0  0  0  0  0  0  0  0  0  0  0  0
   21.4319   12.0178   13.8845 C   0  0  0  0  0  0  0  0  0  0  0  0
   20.2337   12.5289   14.4000 C   0  0  0  0  0  0  0  0  0  0  0  0
   20.1874   13.8168   14.9286 C   0  0  0  0  0  0  0  0  0  0  0  0
   21.3360   14.6184   14.9502 C   0  0  0  0  0  0  0  0  0  0  0  0
   22.5435   14.1167   14.4588 C   0  0  0  0  0  0  0  0  0  0  0  0
   22.5901   12.8212   13.9206 C   0  0  0  0  0  0  0  0  0  0  0  0
   23.8348   12.3432   13.3928 C   0  0  0  0  0  0  0  0  0  0  0  0
   24.8761   11.9095   12.9819 C   0  0  0  0  0  0  0  0  0  0  0  0
   26.1099   11.3580   12.5475 C   0  0  0  0  0  0  0  0  0  0  0  0
   27.3501   11.4903   13.1361 C   0  0  0  0  0  0  0  0  0  0  0  0
   28.3108   10.7994   12.4390 N   0  0  0  0  0  0  0  0  0  0  0  0
   27.6698   10.2476   11.4343 C   0  0  0  0  0  0  0  0  0  0  0  0
   26.3164   10.5606   11.4476 N   0  0  0  0  0  0  0  0  0  0  0  0
   25.3659   10.1488   10.5492 N   0  0  0  0  0  0  0  0  0  0  0  0
   25.8562    9.3958    9.6108 C   0  0  0  0  0  0  0  0  0  0  0  0
   27.2716    8.9829    9.4624 C   0  0  0  0  0  0  0  0  0  0  0  0
   28.1352    9.4235   10.3809 C   0  0  0  0  0  0  0  0  0  0  0  0
   22.0227   17.4761   17.3418 C   0  0  0  0  0  0  0  0  0  0  0  0
   23.0810   18.3467   17.0979 C   0  0  0  0  0  0  0  0  0  0  0  0
   23.2244   19.5207   17.8340 C   0  0  0  0  0  0  0  0  0  0  0  0
   22.3079   19.8666   18.8392 C   0  0  0  0  0  0  0  0  0  0  0  0
   21.1842   19.0382   19.0510 C   0  0  0  0  0  0  0  0  0  0  0  0
   21.0550   17.8527   18.2803 C   0  0  0  0  0  0  0  0  0  0  0  0
   20.1146   19.2970   20.0966 C   0  0  0  0  0  0  0  0  0  0  0  0
   19.4371   20.4708   20.0145 F   0  0  0  0  0  0  0  0  0  0  0  0
   19.1401   18.3376   20.0493 F   0  0  0  0  0  0  0  0  0  0  0  0
   20.6142   19.2311   21.3650 F   0  0  0  0  0  0  0  0  0  0  0  0
   22.6207   21.0916   19.6749 C   0  0  0  0  0  0  0  0  0  0  0  0
   23.8652   20.9596   20.4334 N   0  0  0  0  0  0  0  0  0  0  0  0
   25.0349   21.5861   19.7945 C   0  0  0  0  0  0  0  0  0  0  0  0
   26.3095   21.3715   20.6461 C   0  0  0  0  0  0  0  0  0  0  0  0
   26.2127   21.8493   22.0401 N   0  0  0  0  0  0  0  0  0  0  0  0
   24.9804   21.3093   22.6500 C   0  0  0  0  0  0  0  0  0  0  0  0
   23.6990   21.4838   21.8017 C   0  0  0  0  0  0  0  0  0  0  0  0
   26.2563   23.3071   22.1092 C   0  0  0  0  0  0  0  0  0  0  0  0
  5  6  1  0  0  0
  6  7  1  0  0  0
  6 11  2  0  0  0
  7  8  2  0  0  0
  8  9  1  0  0  0
  9 10  2  0  0  0
  9  1  1  0  0  0
 10 11  1  0  0  0
 11 12  1  0  0  0
 12 13  3  0  0  0
 13 14  1  0  0  0
 14 15  2  0  0  0
 14 18  1  0  0  0
 15 16  1  0  0  0
 16 17  2  0  0  0
 17 18  1  0  0  0
 17 22  1  0  0  0
 18 19  1  0  0  0
 19 20  2  0  0  0
 20 21  1  0  0  0
 21 22  2  0  0  0
  1  2  2  0  0  0
  1  3  1  0  0  0
  3 23  1  0  0  0
  3  4  1  0  0  0
 23 24  1  0  0  0
 23 28  2  0  0  0
 24 25  2  0  0  0
 25 26  1  0  0  0
 26 27  2  0  0  0
 26 33  1  0  0  0
 27 28  1  0  0  0
 27 29  1  0  0  0
 29 30  1  0  0  0
 29 31  1  0  0  0
 29 32  1  0  0  0
 33 34  1  0  0  0
 34 35  1  0  0  0
 34 39  1  0  0  0
 35 36  1  0  0  0
 36 37  1  0  0  0
 37 38  1  0  0  0
 37 40  1  0  0  0
 38 39  1  0  0  0
M  END
> <minimizedAffinity>
-10.12900

$$$$



 40 44  0  0  0  0  0  0  0  0999 V2000
   21.4616   14.9406   15.5254 C   0  0  0  0  0  0  0  0  0  0  0  0
   20.8291   15.9198   15.1433 O   0  0  0  0  0  0  0  0  0  0  0  0
   22.3096   14.8851   16.6247 N   0  0  0  0  0  0  0  0  0  0  0  0
   22.9094   14.0746   16.7107 H   0  0  0  0  0  0  0  0  0  0  0  0
   20.9269   10.1575   12.2895 C   0  0  0  0  0  0  0  0  0  0  0  0
   21.1198   11.3921   13.1285 C   0  0  0  0  0  0  0  0  0  0  0  0
   20.0262   11.9059   13.8376 C   0  0  0  0  0  0  0  0  0  0  0  0
   20.1640   13.0606   14.6043 C   0  0  0  0  0  0  0  0  0  0  0  0
   21.3955   13.7244   14.6753 C   0  0  0  0  0  0  0  0  0  0  0  0
   22.5010   13.2140   13.9908 C   0  0  0  0  0  0  0  0  0  0  0  0
   22.3620   12.0538   13.2132 C   0  0  0  0  0  0  0  0  0  0  0  0
   23.5046   11.5701   12.4943 C   0  0  0  0  0  0  0  0  0  0  0  0
   24.4584   11.1262   11.9158 C   0  0  0  0  0  0  0  0  0  0  0  0
   25.5871   10.5525   11.2740 C   0  0  0  0  0  0  0  0  0  0  0  0
   25.6446    9.9669   10.0267 C   0  0  0  0  0  0  0  0  0  0  0  0
   26.9158    9.5372    9.7341 N   0  0  0  0  0  0  0  0  0  0  0  0
   27.6323    9.8554   10.7878 C   0  0  0  0  0  0  0  0  0  0  0  0
   26.8675   10.4766   11.7669 N   0  0  0  0  0  0  0  0  0  0  0  0
   27.3012   10.9365   12.9838 N   0  0  0  0  0  0  0  0  0  0  0  0
   28.5694   10.7290   13.1749 C   0  0  0  0  0  0  0  0  0  0  0  0
   29.5072   10.0774   12.2305 C   0  0  0  0  0  0  0  0  0  0  0  0
   29.0073    9.6601   11.0646 C   0  0  0  0  0  0  0  0  0  0  0  0
   22.6106   15.9894   17.4595 C   0  0  0  0  0  0  0  0  0  0  0  0
   21.9172   16.2554   18.6366 C   0  0  0  0  0  0  0  0  0  0  0  0
   22.1535   17.4248   19.3561 C   0  0  0  0  0  0  0  0  0  0  0  0
   23.0982   18.3681   18.9230 C   0  0  0  0  0  0  0  0  0  0  0  0
   23.8685   18.0830   17.7745 C   0  0  0  0  0  0  0  0  0  0  0  0
   23.6161   16.8793   17.0647 C   0  0  0  0  0  0  0  0  0  0  0  0
   24.9266   19.0085   17.2016 C   0  0  0  0  0  0  0  0  0  0  0  0
   24.6280   20.3318   17.1426 F   0  0  0  0  0  0  0  0  0  0  0  0
   26.0784   18.9520   17.9378 F   0  0  0  0  0  0  0  0  0  0  0  0
   25.2955   18.6425   15.9395 F   0  0  0  0  0  0  0  0  0  0  0  0
   23.1890   19.6682   19.6966 C   0  0  0  0  0  0  0  0  0  0  0  0
   21.8993   20.0987   20.2378 N   0  0  0  0  0  0  0  0  0  0  0  0
   21.9889   21.1836   21.2297 C   0  0  0  0  0  0  0  0  0  0  0  0
   20.5868   21.5530   21.7714 C   0  0  0  0  0  0  0  0  0  0  0  0
   19.6014   21.9300   20.7380 N   0  0  0  0  0  0  0  0  0  0  0  0
   19.5887   20.8950   19.6842 C   0  0  0  0  0  0  0  0  0  0  0  0
   20.9817   20.4865   19.1505 C   0  0  0  0  0  0  0  0  0  0  0  0
   19.8809   23.2548   20.1915 C   0  0  0  0  0  0  0  0  0  0  0  0
  5  6  1  0  0  0
  6  7  1  0  0  0
  6 11  2  0  0  0
  7  8  2  0  0  0
  8  9  1  0  0  0
  9 10  2  0  0  0
  9  1  1  0  0  0
 10 11  1  0  0  0
 11 12  1  0  0  0
 12 13  3  0  0  0
 13 14  1  0  0  0
 14 15  2  0  0  0
 14 18  1  0  0  0
 15 16  1  0  0  0
 16 17  2  0  0  0
 17 18  1  0  0  0
 17 22  1  0  0  0
 18 19  1  0  0  0
 19 20  2  0  0  0
 20 21  1  0  0  0
 21 22  2  0  0  0
  1  2  2  0  0  0
  1  3  1  0  0  0
  3 23  1  0  0  0
  3  4  1  0  0  0
 23 24  1  0  0  0
 23 28  2  0  0  0
 24 25  2  0  0  0
 25 26  1  0  0  0
 26 27  2  0  0  0
 26 33  1  0  0  0
 27 28  1  0  0  0
 27 29  1  0  0  0
 29 30  1  0  0  0
 29 31  1  0  0  0
 29 32  1  0  0  0
 33 34  1  0  0  0
 34 35  1  0  0  0
 34 39  1  0  0  0
 35 36  1  0  0  0
 36 37  1  0  0  0
 37 38  1  0  0  0
 37 40  1  0  0  0
 38 39  1  0  0  0
M  END
> <minimizedAffinity>
-10.08567

$$$$



 40 44  0  0  0  0  0  0  0  0999 V2000
   22.5222   15.4979   16.6793 C   0  0  0  0  0  0  0  0  0  0  0  0
   23.1179   15.2206   17.7152 O   0  0  0  0  0  0  0  0  0  0  0  0
   22.0478   16.7511   16.3119 N   0  0  0  0  0  0  0  0  0  0  0  0
   21.4126   16.7973   15.5254 H   0  0  0  0  0  0  0  0  0  0  0  0
   20.9369   11.0923   13.2570 C   0  0  0  0  0  0  0  0  0  0  0  0
   21.4004   12.2207   14.1386 C   0  0  0  0  0  0  0  0  0  0  0  0
   20.4720   12.8464   14.9807 C   0  0  0  0  0  0  0  0  0  0  0  0
   20.8619   13.9096   15.7917 C   0  0  0  0  0  0  0  0  0  0  0  0
   22.1853   14.3687   15.7751 C   0  0  0  0  0  0  0  0  0  0  0  0
   23.1282   13.7427   14.9563 C   0  0  0  0  0  0  0  0  0  0  0  0
   22.7352   12.6750   14.1343 C   0  0  0  0  0  0  0  0  0  0  0  0
   23.7156   12.0721   13.2791 C   0  0  0  0  0  0  0  0  0  0  0  0
   24.5306   11.5280   12.5855 C   0  0  0  0  0  0  0  0  0  0  0  0
   25.4927   10.8343   11.8055 C   0  0  0  0  0  0  0  0  0  0  0  0
   25.3049   10.2062   10.5922 C   0  0  0  0  0  0  0  0  0  0  0  0
   26.4739    9.6541   10.1287 N   0  0  0  0  0  0  0  0  0  0  0  0
   27.3705    9.9398   11.0447 C   0  0  0  0  0  0  0  0  0  0  0  0
   26.8233   10.6588   12.0999 N   0  0  0  0  0  0  0  0  0  0  0  0
   27.4792   11.1163   13.2138 N   0  0  0  0  0  0  0  0  0  0  0  0
   28.7395   10.8012   13.2181 C   0  0  0  0  0  0  0  0  0  0  0  0
   29.4599   10.0375   12.1722 C   0  0  0  0  0  0  0  0  0  0  0  0
   28.7504    9.6299   11.1167 C   0  0  0  0  0  0  0  0  0  0  0  0
   22.1449   17.9115   17.1187 C   0  0  0  0  0  0  0  0  0  0  0  0
   23.2437   18.7650   17.0823 C   0  0  0  0  0  0  0  0  0  0  0  0
   23.3610   19.8175   17.9874 C   0  0  0  0  0  0  0  0  0  0  0  0
   22.3770   20.0550   18.9597 C   0  0  0  0  0  0  0  0  0  0  0  0
   21.2168   19.2503   18.9655 C   0  0  0  0  0  0  0  0  0  0  0  0
   21.1161   18.1907   18.0256 C   0  0  0  0  0  0  0  0  0  0  0  0
   20.0745   19.4020   19.9536 C   0  0  0  0  0  0  0  0  0  0  0  0
   19.4528   20.6081   20.0037 F   0  0  0  0  0  0  0  0  0  0  0  0
   19.0705   18.5127   19.6830 F   0  0  0  0  0  0  0  0  0  0  0  0
   20.4633   19.1183   21.2308 F   0  0  0  0  0  0  0  0  0  0  0  0
   22.6566   21.1373   19.9832 C   0  0  0  0  0  0  0  0  0  0  0  0
   23.9996   21.0437   20.5569 N   0  0  0  0  0  0  0  0  0  0  0  0
   25.0169   21.8442   19.8546 C   0  0  0  0  0  0  0  0  0  0  0  0
   26.4090   21.6618   20.5063 C   0  0  0  0  0  0  0  0  0  0  0  0
   26.4653   21.9754   21.9484 N   0  0  0  0  0  0  0  0  0  0  0  0
   25.3753   21.2577   22.6404 C   0  0  0  0  0  0  0  0  0  0  0  0
   23.9802   21.3993   21.9880 C   0  0  0  0  0  0  0  0  0  0  0  0
   26.4006   23.4147   22.1848 C   0  0  0  0  0  0  0  0  0  0  0  0
  5  6  1  0  0  0
  6  7  1  0  0  0
  6 11  2  0  0  0
  7  8  2  0  0  0
  8  9  1  0  0  0
  9 10  2  0  0  0
  9  1  1  0  0  0
 10 11  1  0  0  0
 11 12  1  0  0  0
 12 13  3  0  0  0
 13 14  1  0  0  0
 14 15  2  0  0  0
 14 18  1  0  0  0
 15 16  1  0  0  0
 16 17  2  0  0  0
 17 18  1  0  0  0
 17 22  1  0  0  0
 18 19  1  0  0  0
 19 20  2  0  0  0
 20 21  1  0  0  0
 21 22  2  0  0  0
  1  2  2  0  0  0
  1  3  1  0  0  0
  3 23  1  0  0  0
  3  4  1  0  0  0
 23 24  1  0  0  0
 23 28  2  0  0  0
 24 25  2  0  0  0
 25 26  1  0  0  0
 26 27  2  0  0  0
 26 33  1  0  0  0
 27 28  1  0  0  0
 27 29  1  0  0  0
 29 30  1  0  0  0
 29 31  1  0  0  0
 29 32  1  0  0  0
 33 34  1  0  0  0
 34 35  1  0  0  0
 34 39  1  0  0  0
 35 36  1  0  0  0
 36 37  1  0  0  0
 37 38  1  0  0  0
 37 40  1  0  0  0
 38 39  1  0  0  0
M  END
> <minimizedAffinity>
-10.02962

$$$$



 40 44  0  0  0  0  0  0  0  0999 V2000
   20.6588   20.3841   20.3833 C   0  0  0  0  0  0  0  0  0  0  0  0
   21.0972   19.6371   21.2520 O   0  0  0  0  0  0  0  0  0  0  0  0
   20.6914   20.1618   19.0121 N   0  0  0  0  0  0  0  0  0  0  0  0
   20.4681   20.9421   18.4075 H   0  0  0  0  0  0  0  0  0  0  0  0
   18.6579   25.6223   21.8640 C   0  0  0  0  0  0  0  0  0  0  0  0
   19.1849   24.2520   21.5326 C   0  0  0  0  0  0  0  0  0  0  0  0
   19.6032   23.9866   20.2222 C   0  0  0  0  0  0  0  0  0  0  0  0
   20.0734   22.7221   19.8757 C   0  0  0  0  0  0  0  0  0  0  0  0
   20.1326   21.6990   20.8307 C   0  0  0  0  0  0  0  0  0  0  0  0
   19.7386   21.9526   22.1467 C   0  0  0  0  0  0  0  0  0  0  0  0
   19.2590   23.2247   22.4957 C   0  0  0  0  0  0  0  0  0  0  0  0
   18.8300   23.4484   23.8456 C   0  0  0  0  0  0  0  0  0  0  0  0
   18.4871   23.5946   24.9868 C   0  0  0  0  0  0  0  0  0  0  0  0
   18.0947   23.7052   26.3466 C   0  0  0  0  0  0  0  0  0  0  0  0
   18.3946   22.8500   27.3861 C   0  0  0  0  0  0  0  0  0  0  0  0
   17.8536   23.2916   28.5688 N   0  0  0  0  0  0  0  0  0  0  0  0
   17.2295   24.4054   28.2613 C   0  0  0  0  0  0  0  0  0  0  0  0
   17.3397   24.7057   26.9095 N   0  0  0  0  0  0  0  0  0  0  0  0
   16.8109   25.7916   26.2603 N   0  0  0  0  0  0  0  0  0  0  0  0
   16.1440   26.5743   27.0543 C   0  0  0  0  0  0  0  0  0  0  0  0
   15.9361   26.3832   28.5090 C   0  0  0  0  0  0  0  0  0  0  0  0
   16.4864   25.3020   29.0671 C   0  0  0  0  0  0  0  0  0  0  0  0
   21.2902   19.0340   18.3985 C   0  0  0  0  0  0  0  0  0  0  0  0
   20.8045   17.7401   18.5626 C   0  0  0  0  0  0  0  0  0  0  0  0
   21.5009   16.6458   18.0541 C   0  0  0  0  0  0  0  0  0  0  0  0
   22.7083   16.8106   17.3578 C   0  0  0  0  0  0  0  0  0  0  0  0
   23.1799   18.1186   17.1118 C   0  0  0  0  0  0  0  0  0  0  0  0
   22.4463   19.2178   17.6313 C   0  0  0  0  0  0  0  0  0  0  0  0
   24.4632   18.4403   16.3675 C   0  0  0  0  0  0  0  0  0  0  0  0
   24.4419   18.3256   15.0147 F   0  0  0  0  0  0  0  0  0  0  0  0
   24.8504   19.7330   16.5934 F   0  0  0  0  0  0  0  0  0  0  0  0
   25.5091   17.6774   16.8001 F   0  0  0  0  0  0  0  0  0  0  0  0
   23.4597   15.5558   16.9606 C   0  0  0  0  0  0  0  0  0  0  0  0
   23.1471   15.1122   15.6015 N   0  0  0  0  0  0  0  0  0  0  0  0
   24.3170   15.0071   14.7131 C   0  0  0  0  0  0  0  0  0  0  0  0
   23.8923   14.5643   13.2919 C   0  0  0  0  0  0  0  0  0  0  0  0
   23.1343   13.2981   13.2366 N   0  0  0  0  0  0  0  0  0  0  0  0
   22.0230   13.3591   14.2079 C   0  0  0  0  0  0  0  0  0  0  0  0
   22.4184   13.8304   15.6268 C   0  0  0  0  0  0  0  0  0  0  0  0
   23.9996   12.1467   13.4765 C   0  0  0  0  0  0  0  0  0  0  0  0
  5  6  1  0  0  0
  6  7  1  0  0  0
  6 11  2  0  0  0
  7  8  2  0  0  0
  8  9  1  0  0  0
  9 10  2  0  0  0
  9  1  1  0  0  0
 10 11  1  0  0  0
 11 12  1  0  0  0
 12 13  3  0  0  0
 13 14  1  0  0  0
 14 15  2  0  0  0
 14 18  1  0  0  0
 15 16  1  0  0  0
 16 17  2  0  0  0
 17 18  1  0  0  0
 17 22  1  0  0  0
 18 19  1  0  0  0
 19 20  2  0  0  0
 20 21  1  0  0  0
 21 22  2  0  0  0
  1  2  2  0  0  0
  1  3  1  0  0  0
  3 23  1  0  0  0
  3  4  1  0  0  0
 23 24  1  0  0  0
 23 28  2  0  0  0
 24 25  2  0  0  0
 25 26  1  0  0  0
 26 27  2  0  0  0
 26 33  1  0  0  0
 27 28  1  0  0  0
 27 29  1  0  0  0
 29 30  1  0  0  0
 29 31  1  0  0  0
 29 32  1  0  0  0
 33 34  1  0  0  0
 34 35  1  0  0  0
 34 39  1  0  0  0
 35 36  1  0  0  0
 36 37  1  0  0  0
 37 38  1  0  0  0
 37 40  1  0  0  0
 38 39  1  0  0  0
M  END
> <minimizedAffinity>
-9.86662

$$$$



 40 44  0  0  0  0  0  0  0  0999 V2000
   22.0347   16.8125   18.0422 C   0  0  0  0  0  0  0  0  0  0  0  0
   22.6866   15.9313   18.5929 O   0  0  0  0  0  0  0  0  0  0  0  0
   21.6689   16.8516   16.7023 N   0  0  0  0  0  0  0  0  0  0  0  0
   21.2993   17.7233   16.3448 H   0  0  0  0  0  0  0  0  0  0  0  0
   20.4003   21.4136   21.1716 C   0  0  0  0  0  0  0  0  0  0  0  0
   20.8747   20.2407   20.3565 C   0  0  0  0  0  0  0  0  0  0  0  0
   19.9244   19.4198   19.7354 C   0  0  0  0  0  0  0  0  0  0  0  0
   20.3281   18.3120   18.9938 C   0  0  0  0  0  0  0  0  0  0  0  0
   21.6877   18.0026   18.8605 C   0  0  0  0  0  0  0  0  0  0  0  0
   22.6491   18.8223   19.4564 C   0  0  0  0  0  0  0  0  0  0  0  0
   22.2433   19.9355   20.2088 C   0  0  0  0  0  0  0  0  0  0  0  0
   23.2495   20.7411   20.8373 C   0  0  0  0  0  0  0  0  0  0  0  0
   24.1068   21.3784   21.3851 C   0  0  0  0  0  0  0  0  0  0  0  0
   25.1323   22.0810   22.0707 C   0  0  0  0  0  0  0  0  0  0  0  0
   25.7695   23.2405   21.6817 C   0  0  0  0  0  0  0  0  0  0  0  0
   26.6995   23.6362   22.6116 N   0  0  0  0  0  0  0  0  0  0  0  0
   26.6348   22.7320   23.5619 C   0  0  0  0  0  0  0  0  0  0  0  0
   25.6931   21.7502   23.2807 N   0  0  0  0  0  0  0  0  0  0  0  0
   25.3732   20.6674   24.0589 N   0  0  0  0  0  0  0  0  0  0  0  0
   26.0685   20.6153   25.1551 C   0  0  0  0  0  0  0  0  0  0  0  0
   27.1063   21.5810   25.5865 C   0  0  0  0  0  0  0  0  0  0  0  0
   27.3571   22.6107   24.7739 C   0  0  0  0  0  0  0  0  0  0  0  0
   22.0420   15.8788   15.7424 C   0  0  0  0  0  0  0  0  0  0  0  0
   23.0378   16.0980   14.7950 C   0  0  0  0  0  0  0  0  0  0  0  0
   23.2797   15.1694   13.7850 C   0  0  0  0  0  0  0  0  0  0  0  0
   22.5338   13.9841   13.6916 C   0  0  0  0  0  0  0  0  0  0  0  0
   21.5718   13.7043   14.6865 C   0  0  0  0  0  0  0  0  0  0  0  0
   21.3515   14.6618   15.7117 C   0  0  0  0  0  0  0  0  0  0  0  0
   20.7027   12.4600   14.7115 C   0  0  0  0  0  0  0  0  0  0  0  0
   21.3281   11.2628   14.5717 F   0  0  0  0  0  0  0  0  0  0  0  0
   20.0293   12.3557   15.8979 F   0  0  0  0  0  0  0  0  0  0  0  0
   19.7298   12.4977   13.7550 F   0  0  0  0  0  0  0  0  0  0  0  0
   22.7776   13.1016   12.4839 C   0  0  0  0  0  0  0  0  0  0  0  0
   23.8693   12.1485   12.6874 N   0  0  0  0  0  0  0  0  0  0  0  0
   24.0160   11.1545   11.6107 C   0  0  0  0  0  0  0  0  0  0  0  0
   25.1694   10.1702   11.9220 C   0  0  0  0  0  0  0  0  0  0  0  0
   26.4794   10.8063   12.1675 N   0  0  0  0  0  0  0  0  0  0  0  0
   26.3136   11.8794   13.1691 C   0  0  0  0  0  0  0  0  0  0  0  0
   25.1463   12.8562   12.8955 C   0  0  0  0  0  0  0  0  0  0  0  0
   27.0696   11.3083   10.9300 C   0  0  0  0  0  0  0  0  0  0  0  0
  5  6  1  0  0  0
  6  7  1  0  0  0
  6 11  2  0  0  0
  7  8  2  0  0  0
  8  9  1  0  0  0
  9 10  2  0  0  0
  9  1  1  0  0  0
 10 11  1  0  0  0
 11 12  1  0  0  0
 12 13  3  0  0  0
 13 14  1  0  0  0
 14 15  2  0  0  0
 14 18  1  0  0  0
 15 16  1  0  0  0
 16 17  2  0  0  0
 17 18  1  0  0  0
 17 22  1  0  0  0
 18 19  1  0  0  0
 19 20  2  0  0  0
 20 21  1  0  0  0
 21 22  2  0  0  0
  1  2  2  0  0  0
  1  3  1  0  0  0
  3 23  1  0  0  0
  3  4  1  0  0  0
 23 24  1  0  0  0
 23 28  2  0  0  0
 24 25  2  0  0  0
 25 26  1  0  0  0
 26 27  2  0  0  0
 26 33  1  0  0  0
 27 28  1  0  0  0
 27 29  1  0  0  0
 29 30  1  0  0  0
 29 31  1  0  0  0
 29 32  1  0  0  0
 33 34  1  0  0  0
 34 35  1  0  0  0
 34 39  1  0  0  0
 35 36  1  0  0  0
 36 37  1  0  0  0
 37 38  1  0  0  0
 37 40  1  0  0  0
 38 39  1  0  0  0
M  END
> <minimizedAffinity>
-9.69812

$$$$



 40 44  0  0  0  0  0  0  0  0999 V2000
   23.0240   12.1563   12.5979 C   0  0  0  0  0  0  0  0  0  0  0  0
   22.6393   12.3047   11.4425 O   0  0  0  0  0  0  0  0  0  0  0  0
   24.2223   11.5790   12.9996 N   0  0  0  0  0  0  0  0  0  0  0  0
   24.3241   11.3498   13.9801 H   0  0  0  0  0  0  0  0  0  0  0  0
   19.1410   13.4388   16.7104 C   0  0  0  0  0  0  0  0  0  0  0  0
   20.1707   13.1555   15.6498 C   0  0  0  0  0  0  0  0  0  0  0  0
   19.9519   12.0952   14.7605 C   0  0  0  0  0  0  0  0  0  0  0  0
   20.8957   11.7906   13.7825 C   0  0  0  0  0  0  0  0  0  0  0  0
   22.0759   12.5375   13.6759 C   0  0  0  0  0  0  0  0  0  0  0  0
   22.3003   13.6107   14.5415 C   0  0  0  0  0  0  0  0  0  0  0  0
   21.3527   13.9151   15.5312 C   0  0  0  0  0  0  0  0  0  0  0  0
   21.6233   15.0010   16.4277 C   0  0  0  0  0  0  0  0  0  0  0  0
   21.8888   15.9178   17.1560 C   0  0  0  0  0  0  0  0  0  0  0  0
   22.2620   17.0031   17.9915 C   0  0  0  0  0  0  0  0  0  0  0  0
   23.5286   17.4981   18.2206 C   0  0  0  0  0  0  0  0  0  0  0  0
   23.4989   18.5700   19.0787 N   0  0  0  0  0  0  0  0  0  0  0  0
   22.2296   18.7336   19.3732 C   0  0  0  0  0  0  0  0  0  0  0  0
   21.4246   17.7965   18.7380 N   0  0  0  0  0  0  0  0  0  0  0  0
   20.0606   17.6865   18.8256 N   0  0  0  0  0  0  0  0  0  0  0  0
   19.5349   18.5809   19.6074 C   0  0  0  0  0  0  0  0  0  0  0  0
   20.2616   19.6353   20.3532 C   0  0  0  0  0  0  0  0  0  0  0  0
   21.5889   19.6776   20.2122 C   0  0  0  0  0  0  0  0  0  0  0  0
   25.1788   11.0231   12.1148 C   0  0  0  0  0  0  0  0  0  0  0  0
   24.8442   10.5264   10.8584 C   0  0  0  0  0  0  0  0  0  0  0  0
   25.7892    9.8658   10.0765 C   0  0  0  0  0  0  0  0  0  0  0  0
   27.1066    9.6835   10.5251 C   0  0  0  0  0  0  0  0  0  0  0  0
   27.4891   10.2466   11.7621 C   0  0  0  0  0  0  0  0  0  0  0  0
   26.5101   10.9247   12.5355 C   0  0  0  0  0  0  0  0  0  0  0  0
   28.8789   10.1322   12.3619 C   0  0  0  0  0  0  0  0  0  0  0  0
   29.3540    8.8816   12.5940 F   0  0  0  0  0  0  0  0  0  0  0  0
   29.8146   10.7055   11.5446 F   0  0  0  0  0  0  0  0  0  0  0  0
   28.9816   10.8064   13.5442 F   0  0  0  0  0  0  0  0  0  0  0  0
   28.0240    8.8375    9.6652 C   0  0  0  0  0  0  0  0  0  0  0  0
   27.7397    7.4057    9.7687 N   0  0  0  0  0  0  0  0  0  0  0  0
   27.0826    6.8300    8.5830 C   0  0  0  0  0  0  0  0  0  0  0  0
   26.7909    5.3241    8.7907 C   0  0  0  0  0  0  0  0  0  0  0  0
   27.9715    4.5038    9.1288 N   0  0  0  0  0  0  0  0  0  0  0  0
   28.6948    5.1394   10.2491 C   0  0  0  0  0  0  0  0  0  0  0  0
   28.9688    6.6518   10.0778 C   0  0  0  0  0  0  0  0  0  0  0  0
   28.8360    4.3083    7.9686 C   0  0  0  0  0  0  0  0  0  0  0  0
  5  6  1  0  0  0
  6  7  1  0  0  0
  6 11  2  0  0  0
  7  8  2  0  0  0
  8  9  1  0  0  0
  9 10  2  0  0  0
  9  1  1  0  0  0
 10 11  1  0  0  0
 11 12  1  0  0  0
 12 13  3  0  0  0
 13 14  1  0  0  0
 14 15  2  0  0  0
 14 18  1  0  0  0
 15 16  1  0  0  0
 16 17  2  0  0  0
 17 18  1  0  0  0
 17 22  1  0  0  0
 18 19  1  0  0  0
 19 20  2  0  0  0
 20 21  1  0  0  0
 21 22  2  0  0  0
  1  2  2  0  0  0
  1  3  1  0  0  0
  3 23  1  0  0  0
  3  4  1  0  0  0
 23 24  1  0  0  0
 23 28  2  0  0  0
 24 25  2  0  0  0
 25 26  1  0  0  0
 26 27  2  0  0  0
 26 33  1  0  0  0
 27 28  1  0  0  0
 27 29  1  0  0  0
 29 30  1  0  0  0
 29 31  1  0  0  0
 29 32  1  0  0  0
 33 34  1  0  0  0
 34 35  1  0  0  0
 34 39  1  0  0  0
 35 36  1  0  0  0
 36 37  1  0  0  0
 37 38  1  0  0  0
 37 40  1  0  0  0
 38 39  1  0  0  0
M  END
> <minimizedAffinity>
-9.58178

$$$$



 40 44  0  0  0  0  0  0  0  0999 V2000
   24.0018   12.6268   13.1981 C   0  0  0  0  0  0  0  0  0  0  0  0
   24.6737   13.5632   12.7779 O   0  0  0  0  0  0  0  0  0  0  0  0
   24.1655   11.2852   12.8758 N   0  0  0  0  0  0  0  0  0  0  0  0
   23.4264   10.6476   13.1431 H   0  0  0  0  0  0  0  0  0  0  0  0
   19.3277   13.7071   16.4572 C   0  0  0  0  0  0  0  0  0  0  0  0
   20.5528   13.4799   15.6129 C   0  0  0  0  0  0  0  0  0  0  0  0
   20.6625   12.2867   14.8869 C   0  0  0  0  0  0  0  0  0  0  0  0
   21.7938   12.0340   14.1147 C   0  0  0  0  0  0  0  0  0  0  0  0
   22.8371   12.9668   14.0549 C   0  0  0  0  0  0  0  0  0  0  0  0
   22.7347   14.1705   14.7564 C   0  0  0  0  0  0  0  0  0  0  0  0
   21.5977   14.4238   15.5395 C   0  0  0  0  0  0  0  0  0  0  0  0
   21.5331   15.6527   16.2757 C   0  0  0  0  0  0  0  0  0  0  0  0
   21.5169   16.6953   16.8708 C   0  0  0  0  0  0  0  0  0  0  0  0
   21.5570   17.9401   17.5521 C   0  0  0  0  0  0  0  0  0  0  0  0
   21.9362   19.1674   17.0505 C   0  0  0  0  0  0  0  0  0  0  0  0
   21.8299   20.1514   18.0028 N   0  0  0  0  0  0  0  0  0  0  0  0
   21.3895   19.5374   19.0770 C   0  0  0  0  0  0  0  0  0  0  0  0
   21.2088   18.1773   18.8599 N   0  0  0  0  0  0  0  0  0  0  0  0
   20.7604   17.2502   19.7653 N   0  0  0  0  0  0  0  0  0  0  0  0
   20.5044   17.7689   20.9286 C   0  0  0  0  0  0  0  0  0  0  0  0
   20.6531   19.1932   21.3098 C   0  0  0  0  0  0  0  0  0  0  0  0
   21.0923   20.0337   20.3696 C   0  0  0  0  0  0  0  0  0  0  0  0
   25.1265   10.7944   11.9579 C   0  0  0  0  0  0  0  0  0  0  0  0
   24.7914   10.3450   10.6840 C   0  0  0  0  0  0  0  0  0  0  0  0
   25.7448    9.7449    9.8644 C   0  0  0  0  0  0  0  0  0  0  0  0
   27.0712    9.5778   10.2918 C   0  0  0  0  0  0  0  0  0  0  0  0
   27.4523   10.0957   11.5489 C   0  0  0  0  0  0  0  0  0  0  0  0
   26.4643   10.7128   12.3610 C   0  0  0  0  0  0  0  0  0  0  0  0
   28.8509    9.9917   12.1296 C   0  0  0  0  0  0  0  0  0  0  0  0
   29.8650   10.5336   11.4074 F   0  0  0  0  0  0  0  0  0  0  0  0
   28.9257   10.6176   13.3440 F   0  0  0  0  0  0  0  0  0  0  0  0
   29.2060    8.6972   12.3767 F   0  0  0  0  0  0  0  0  0  0  0  0
   28.0010    8.7952    9.3864 C   0  0  0  0  0  0  0  0  0  0  0  0
   28.2841    9.4867    8.1281 N   0  0  0  0  0  0  0  0  0  0  0  0
   28.5174   10.9339    8.2698 C   0  0  0  0  0  0  0  0  0  0  0  0
   28.7764   11.5885    6.8913 C   0  0  0  0  0  0  0  0  0  0  0  0
   29.8904   10.9975    6.1228 N   0  0  0  0  0  0  0  0  0  0  0  0
   29.7166    9.5315    6.0725 C   0  0  0  0  0  0  0  0  0  0  0  0
   29.4244    8.8595    7.4345 C   0  0  0  0  0  0  0  0  0  0  0  0
   31.1848   11.3695    6.6867 C   0  0  0  0  0  0  0  0  0  0  0  0
  5  6  1  0  0  0
  6  7  1  0  0  0
  6 11  2  0  0  0
  7  8  2  0  0  0
  8  9  1  0  0  0
  9 10  2  0  0  0
  9  1  1  0  0  0
 10 11  1  0  0  0
 11 12  1  0  0  0
 12 13  3  0  0  0
 13 14  1  0  0  0
 14 15  2  0  0  0
 14 18  1  0  0  0
 15 16  1  0  0  0
 16 17  2  0  0  0
 17 18  1  0  0  0
 17 22  1  0  0  0
 18 19  1  0  0  0
 19 20  2  0  0  0
 20 21  1  0  0  0
 21 22  2  0  0  0
  1  2  2  0  0  0
  1  3  1  0  0  0
  3 23  1  0  0  0
  3  4  1  0  0  0
 23 24  1  0  0  0
 23 28  2  0  0  0
 24 25  2  0  0  0
 25 26  1  0  0  0
 26 27  2  0  0  0
 26 33  1  0  0  0
 27 28  1  0  0  0
 27 29  1  0  0  0
 29 30  1  0  0  0
 29 31  1  0  0  0
 29 32  1  0  0  0
 33 34  1  0  0  0
 34 35  1  0  0  0
 34 39  1  0  0  0
 35 36  1  0  0  0
 36 37  1  0  0  0
 37 38  1  0  0  0
 37 40  1  0  0  0
 38 39  1  0  0  0
M  END
> <minimizedAffinity>
-9.22512

$$$$



 40 44  0  0  0  0  0  0  0  0999 V2000
   21.7680   14.6487   15.7439 C   0  0  0  0  0  0  0  0  0  0  0  0
   22.4185   14.1305   16.6457 O   0  0  0  0  0  0  0  0  0  0  0  0
   21.8442   15.9726   15.3288 N   0  0  0  0  0  0  0  0  0  0  0  0
   21.1198   16.3091   14.7075 H   0  0  0  0  0  0  0  0  0  0  0  0
   17.9099   11.2420   13.0711 C   0  0  0  0  0  0  0  0  0  0  0  0
   18.8708   12.1608   13.7767 C   0  0  0  0  0  0  0  0  0  0  0  0
   20.2432   12.0215   13.5323 C   0  0  0  0  0  0  0  0  0  0  0  0
   21.1614   12.8392   14.1869 C   0  0  0  0  0  0  0  0  0  0  0  0
   20.7262   13.8093   15.0989 C   0  0  0  0  0  0  0  0  0  0  0  0
   19.3600   13.9749   15.3388 C   0  0  0  0  0  0  0  0  0  0  0  0
   18.4342   13.1477   14.6842 C   0  0  0  0  0  0  0  0  0  0  0  0
   17.0399   13.3168   14.9738 C   0  0  0  0  0  0  0  0  0  0  0  0
   15.8709   13.4908   15.1842 C   0  0  0  0  0  0  0  0  0  0  0  0
   14.4912   13.7492   15.3960 C   0  0  0  0  0  0  0  0  0  0  0  0
   13.5163   13.9715   14.4463 C   0  0  0  0  0  0  0  0  0  0  0  0
   12.2878   14.1700   15.0276 N   0  0  0  0  0  0  0  0  0  0  0  0
   12.5037   14.0699   16.3191 C   0  0  0  0  0  0  0  0  0  0  0  0
   13.8396   13.8171   16.6039 N   0  0  0  0  0  0  0  0  0  0  0  0
   14.4021   13.6549   17.8439 N   0  0  0  0  0  0  0  0  0  0  0  0
   13.5363   13.7698   18.8057 C   0  0  0  0  0  0  0  0  0  0  0  0
   12.0872   14.0425   18.6584 C   0  0  0  0  0  0  0  0  0  0  0  0
   11.6163   14.1846   17.4168 C   0  0  0  0  0  0  0  0  0  0  0  0
   22.6714   16.9531   15.9299 C   0  0  0  0  0  0  0  0  0  0  0  0
   24.0089   17.1251   15.5852 C   0  0  0  0  0  0  0  0  0  0  0  0
   24.8217   18.0067   16.2944 C   0  0  0  0  0  0  0  0  0  0  0  0
   24.3205   18.7519   17.3730 C   0  0  0  0  0  0  0  0  0  0  0  0
   22.9484   18.6520   17.6911 C   0  0  0  0  0  0  0  0  0  0  0  0
   22.1385   17.7544   16.9462 C   0  0  0  0  0  0  0  0  0  0  0  0
   22.2750   19.4048   18.8242 C   0  0  0  0  0  0  0  0  0  0  0  0
   22.2663   20.7606   18.7502 F   0  0  0  0  0  0  0  0  0  0  0  0
   20.9545   19.0610   18.9251 F   0  0  0  0  0  0  0  0  0  0  0  0
   22.8156   19.0911   20.0376 F   0  0  0  0  0  0  0  0  0  0  0  0
   25.3106   19.5812   18.1660 C   0  0  0  0  0  0  0  0  0  0  0  0
   26.2378   20.3273   17.3144 N   0  0  0  0  0  0  0  0  0  0  0  0
   26.0730   21.7896   17.3731 C   0  0  0  0  0  0  0  0  0  0  0  0
   27.0686   22.4955   16.4210 C   0  0  0  0  0  0  0  0  0  0  0  0
   28.4893   22.1646   16.6517 N   0  0  0  0  0  0  0  0  0  0  0  0
   28.6396   20.6960   16.7026 C   0  0  0  0  0  0  0  0  0  0  0  0
   27.6338   19.9661   17.6232 C   0  0  0  0  0  0  0  0  0  0  0  0
   28.9963   22.8024   17.8634 C   0  0  0  0  0  0  0  0  0  0  0  0
  5  6  1  0  0  0
  6  7  1  0  0  0
  6 11  2  0  0  0
  7  8  2  0  0  0
  8  9  1  0  0  0
  9 10  2  0  0  0
  9  1  1  0  0  0
 10 11  1  0  0  0
 11 12  1  0  0  0
 12 13  3  0  0  0
 13 14  1  0  0  0
 14 15  2  0  0  0
 14 18  1  0  0  0
 15 16  1  0  0  0
 16 17  2  0  0  0
 17 18  1  0  0  0
 17 22  1  0  0  0
 18 19  1  0  0  0
 19 20  2  0  0  0
 20 21  1  0  0  0
 21 22  2  0  0  0
  1  2  2  0  0  0
  1  3  1  0  0  0
  3 23  1  0  0  0
  3  4  1  0  0  0
 23 24  1  0  0  0
 23 28  2  0  0  0
 24 25  2  0  0  0
 25 26  1  0  0  0
 26 27  2  0  0  0
 26 33  1  0  0  0
 27 28  1  0  0  0
 27 29  1  0  0  0
 29 30  1  0  0  0
 29 31  1  0  0  0
 29 32  1  0  0  0
 33 34  1  0  0  0
 34 35  1  0  0  0
 34 39  1  0  0  0
 35 36  1  0  0  0
 36 37  1  0  0  0
 37 38  1  0  0  0
 37 40  1  0  0  0
 38 39  1  0  0  0
M  END
> <minimizedAffinity>
-9.19686

$$$$



 40 44  0  0  0  0  0  0  0  0999 V2000
   20.5950   19.8051   20.3392 C   0  0  0  0  0  0  0  0  0  0  0  0
   20.7472   19.0573   21.2997 O   0  0  0  0  0  0  0  0  0  0  0  0
   20.8739   19.5076   19.0109 N   0  0  0  0  0  0  0  0  0  0  0  0
   20.8815   20.2759   18.3524 H   0  0  0  0  0  0  0  0  0  0  0  0
   18.9884   25.3093   21.2095 C   0  0  0  0  0  0  0  0  0  0  0  0
   19.4114   23.8751   21.0376 C   0  0  0  0  0  0  0  0  0  0  0  0
   19.8266   23.4393   19.7726 C   0  0  0  0  0  0  0  0  0  0  0  0
   20.2016   22.1127   19.5731 C   0  0  0  0  0  0  0  0  0  0  0  0
   20.1667   21.1968   20.6324 C   0  0  0  0  0  0  0  0  0  0  0  0
   19.7746   21.6197   21.9047 C   0  0  0  0  0  0  0  0  0  0  0  0
   19.3910   22.9549   22.1057 C   0  0  0  0  0  0  0  0  0  0  0  0
   18.9612   23.3545   23.4140 C   0  0  0  0  0  0  0  0  0  0  0  0
   18.6448   23.6884   24.5230 C   0  0  0  0  0  0  0  0  0  0  0  0
   18.3309   24.0703   25.8537 C   0  0  0  0  0  0  0  0  0  0  0  0
   19.1772   24.6035   26.8031 C   0  0  0  0  0  0  0  0  0  0  0  0
   18.5120   24.8642   27.9761 N   0  0  0  0  0  0  0  0  0  0  0  0
   17.2713   24.4971   27.7511 C   0  0  0  0  0  0  0  0  0  0  0  0
   17.1030   23.9973   26.4660 N   0  0  0  0  0  0  0  0  0  0  0  0
   15.9402   23.5315   25.9080 N   0  0  0  0  0  0  0  0  0  0  0  0
   14.9338   23.5872   26.7277 C   0  0  0  0  0  0  0  0  0  0  0  0
   14.9604   24.0870   28.1224 C   0  0  0  0  0  0  0  0  0  0  0  0
   16.1313   24.5266   28.5907 C   0  0  0  0  0  0  0  0  0  0  0  0
   21.4307   18.2836   18.5651 C   0  0  0  0  0  0  0  0  0  0  0  0
   22.3199   17.5364   19.3321 C   0  0  0  0  0  0  0  0  0  0  0  0
   22.9483   16.4110   18.8034 C   0  0  0  0  0  0  0  0  0  0  0  0
   22.7034   15.9912   17.4867 C   0  0  0  0  0  0  0  0  0  0  0  0
   21.7469   16.6878   16.7163 C   0  0  0  0  0  0  0  0  0  0  0  0
   21.1121   17.8253   17.2816 C   0  0  0  0  0  0  0  0  0  0  0  0
   21.3804   16.3378   15.2854 C   0  0  0  0  0  0  0  0  0  0  0  0
   22.3599   16.4405   14.3506 F   0  0  0  0  0  0  0  0  0  0  0  0
   20.9547   15.0409   15.1912 F   0  0  0  0  0  0  0  0  0  0  0  0
   20.3350   17.0870   14.8285 F   0  0  0  0  0  0  0  0  0  0  0  0
   23.5329   14.8383   16.9580 C   0  0  0  0  0  0  0  0  0  0  0  0
   24.6286   15.2763   16.0924 N   0  0  0  0  0  0  0  0  0  0  0  0
   25.4387   16.3741   16.6472 C   0  0  0  0  0  0  0  0  0  0  0  0
   26.5508   16.7944   15.6559 C   0  0  0  0  0  0  0  0  0  0  0  0
   27.4506   15.7024   15.2329 N   0  0  0  0  0  0  0  0  0  0  0  0
   26.6369   14.5566   14.7778 C   0  0  0  0  0  0  0  0  0  0  0  0
   25.4984   14.1394   15.7379 C   0  0  0  0  0  0  0  0  0  0  0  0
   28.3690   15.3225   16.3025 C   0  0  0  0  0  0  0  0  0  0  0  0
  5  6  1  0  0  0
  6  7  1  0  0  0
  6 11  2  0  0  0
  7  8  2  0  0  0
  8  9  1  0  0  0
  9 10  2  0  0  0
  9  1  1  0  0  0
 10 11  1  0  0  0
 11 12  1  0  0  0
 12 13  3  0  0  0
 13 14  1  0  0  0
 14 15  2  0  0  0
 14 18  1  0  0  0
 15 16  1  0  0  0
 16 17  2  0  0  0
 17 18  1  0  0  0
 17 22  1  0  0  0
 18 19  1  0  0  0
 19 20  2  0  0  0
 20 21  1  0  0  0
 21 22  2  0  0  0
  1  2  2  0  0  0
  1  3  1  0  0  0
  3 23  1  0  0  0
  3  4  1  0  0  0
 23 24  1  0  0  0
 23 28  2  0  0  0
 24 25  2  0  0  0
 25 26  1  0  0  0
 26 27  2  0  0  0
 26 33  1  0  0  0
 27 28  1  0  0  0
 27 29  1  0  0  0
 29 30  1  0  0  0
 29 31  1  0  0  0
 29 32  1  0  0  0
 33 34  1  0  0  0
 34 35  1  0  0  0
 34 39  1  0  0  0
 35 36  1  0  0  0
 36 37  1  0  0  0
 37 38  1  0  0  0
 37 40  1  0  0  0
 38 39  1  0  0  0
M  END
> <minimizedAffinity>
-9.13199

$$$$
