


 40 44  0  0  0  0  0  0  0  0999 V2000
   12.8047   15.4608   17.8819 C   0  0  0  0  0  0  0  0  0  0  0  0
   12.9595   16.0735   16.8306 O   0  0  0  0  0  0  0  0  0  0  0  0
   11.9574   15.8148   18.9248 N   0  0  0  0  0  0  0  0  0  0  0  0
   12.0708   15.3268   19.8041 H   0  0  0  0  0  0  0  0  0  0  0  0
   16.0840   10.8139   19.0167 C   0  0  0  0  0  0  0  0  0  0  0  0
   15.2712   12.0371   18.6873 C   0  0  0  0  0  0  0  0  0  0  0  0
   14.2389   12.4173   19.5548 C   0  0  0  0  0  0  0  0  0  0  0  0
   13.4518   13.5300   19.2675 C   0  0  0  0  0  0  0  0  0  0  0  0
   13.6795   14.2819   18.1077 C   0  0  0  0  0  0  0  0  0  0  0  0
   14.7177   13.9285   17.2426 C   0  0  0  0  0  0  0  0  0  0  0  0
   15.5079   12.8041   17.5280 C   0  0  0  0  0  0  0  0  0  0  0  0
   16.5455   12.4442   16.6060 C   0  0  0  0  0  0  0  0  0  0  0  0
   17.4012   12.0994   15.8378 C   0  0  0  0  0  0  0  0  0  0  0  0
   18.4003   11.6304   14.9450 C   0  0  0  0  0  0  0  0  0  0  0  0
   18.2279   10.8816   13.7998 C   0  0  0  0  0  0  0  0  0  0  0  0
   19.4283   10.6291   13.1821 N   0  0  0  0  0  0  0  0  0  0  0  0
   20.3284   11.2163   13.9369 C   0  0  0  0  0  0  0  0  0  0  0  0
   19.7548   11.8425   15.0363 N   0  0  0  0  0  0  0  0  0  0  0  0
   20.4057   12.5456   16.0173 N   0  0  0  0  0  0  0  0  0  0  0  0
   21.6919   12.5819   15.8383 C   0  0  0  0  0  0  0  0  0  0  0  0
   22.4438   11.9600   14.7231 C   0  0  0  0  0  0  0  0  0  0  0  0
   21.7363   11.2951   13.8062 C   0  0  0  0  0  0  0  0  0  0  0  0
   11.1625   16.9871   18.9470 C   0  0  0  0  0  0  0  0  0  0  0  0
   10.7117   17.5699   20.1279 C   0  0  0  0  0  0  0  0  0  0  0  0
    9.8214   18.6411   20.1013 C   0  0  0  0  0  0  0  0  0  0  0  0
    9.3544   19.1700   18.8880 C   0  0  0  0  0  0  0  0  0  0  0  0
    9.8579   18.6458   17.6775 C   0  0  0  0  0  0  0  0  0  0  0  0
   10.7728   17.5612   17.7315 C   0  0  0  0  0  0  0  0  0  0  0  0
    9.4456   19.1278   16.2984 C   0  0  0  0  0  0  0  0  0  0  0  0
    8.2277   19.7173   16.1851 F   0  0  0  0  0  0  0  0  0  0  0  0
   10.3226   20.0644   15.8236 F   0  0  0  0  0  0  0  0  0  0  0  0
    9.4708   18.1209   15.3773 F   0  0  0  0  0  0  0  0  0  0  0  0
    8.2875   20.2439   18.9616 C   0  0  0  0  0  0  0  0  0  0  0  0
    8.0169   20.6835   20.3309 N   0  0  0  0  0  0  0  0  0  0  0  0
    8.6417   21.9677   20.6909 C   0  0  0  0  0  0  0  0  0  0  0  0
    8.3312   22.3392   22.1611 C   0  0  0  0  0  0  0  0  0  0  0  0
    6.8943   22.3956   22.4971 N   0  0  0  0  0  0  0  0  0  0  0  0
    6.2430   21.1519   22.0377 C   0  0  0  0  0  0  0  0  0  0  0  0
    6.5648   20.7435   20.5811 C   0  0  0  0  0  0  0  0  0  0  0  0
    6.2588   23.5807   21.9284 C   0  0  0  0  0  0  0  0  0  0  0  0
  5  6  1  0  0  0
  6  7  1  0  0  0
  6 11  2  0  0  0
  7  8  2  0  0  0
  8  9  1  0  0  0
  9 10  2  0  0  0
  9  1  1  0  0  0
 10 11  1  0  0  0
 11 12  1  0  0  0
 12 13  3  0  0  0
 13 14  1  0  0  0
 14 15  2  0  0  0
 14 18  1  0  0  0
 15 16  1  0  0  0
 16 17  2  0  0  0
 17 18  1  0  0  0
 17 22  1  0  0  0
 18 19  1  0  0  0
 19 20  2  0  0  0
 20 21  1  0  0  0
 21 22  2  0  0  0
  1  2  2  0  0  0
  1  3  1  0  0  0
  3 23  1  0  0  0
  3  4  1  0  0  0
 23 24  1  0  0  0
 23 28  2  0  0  0
 24 25  2  0  0  0
 25 26  1  0  0  0
 26 27  2  0  0  0
 26 33  1  0  0  0
 27 28  1  0  0  0
 27 29  1  0  0  0
 29 30  1  0  0  0
 29 31  1  0  0  0
 29 32  1  0  0  0
 33 34  1  0  0  0
 34 35  1  0  0  0
 34 39  1  0  0  0
 35 36  1  0  0  0
 36 37  1  0  0  0
 37 38  1  0  0  0
 37 40  1  0  0  0
 38 39  1  0  0  0
M  END
> <minimizedAffinity>
-12.45559

$$$$



 40 44  0  0  0  0  0  0  0  0999 V2000
   12.4337   18.1979   25.0180 C   0  0  0  0  0  0  0  0  0  0  0  0
   13.3116   17.6845   24.3321 O   0  0  0  0  0  0  0  0  0  0  0  0
   12.4963   18.4502   26.3830 N   0  0  0  0  0  0  0  0  0  0  0  0
   11.6347   18.7000   26.8513 H   0  0  0  0  0  0  0  0  0  0  0  0
    7.2548   19.3236   22.6629 C   0  0  0  0  0  0  0  0  0  0  0  0
    8.6157   19.0129   23.2256 C   0  0  0  0  0  0  0  0  0  0  0  0
    8.7703   18.9300   24.6156 C   0  0  0  0  0  0  0  0  0  0  0  0
   10.0207   18.6681   25.1705 C   0  0  0  0  0  0  0  0  0  0  0  0
   11.1399   18.4864   24.3479 C   0  0  0  0  0  0  0  0  0  0  0  0
   10.9993   18.5457   22.9593 C   0  0  0  0  0  0  0  0  0  0  0  0
    9.7409   18.8153   22.3991 C   0  0  0  0  0  0  0  0  0  0  0  0
    9.6311   18.9035   20.9721 C   0  0  0  0  0  0  0  0  0  0  0  0
    9.5709   18.9449   19.7738 C   0  0  0  0  0  0  0  0  0  0  0  0
    9.5525   18.9567   18.3544 C   0  0  0  0  0  0  0  0  0  0  0  0
    8.9213   19.8586   17.5237 C   0  0  0  0  0  0  0  0  0  0  0  0
    9.1405   19.5588   16.2014 N   0  0  0  0  0  0  0  0  0  0  0  0
    9.8983   18.4864   16.2180 C   0  0  0  0  0  0  0  0  0  0  0  0
   10.1787   18.0692   17.5129 N   0  0  0  0  0  0  0  0  0  0  0  0
   10.9398   16.9909   17.8853 N   0  0  0  0  0  0  0  0  0  0  0  0
   11.4090   16.3335   16.8678 C   0  0  0  0  0  0  0  0  0  0  0  0
   11.1919   16.6526   15.4371 C   0  0  0  0  0  0  0  0  0  0  0  0
   10.4414   17.7211   15.1573 C   0  0  0  0  0  0  0  0  0  0  0  0
   13.5916   18.1025   27.2114 C   0  0  0  0  0  0  0  0  0  0  0  0
   14.6491   18.9708   27.4666 C   0  0  0  0  0  0  0  0  0  0  0  0
   15.7701   18.5426   28.1743 C   0  0  0  0  0  0  0  0  0  0  0  0
   15.8688   17.2280   28.6563 C   0  0  0  0  0  0  0  0  0  0  0  0
   14.7754   16.3528   28.4770 C   0  0  0  0  0  0  0  0  0  0  0  0
   13.6398   16.8165   27.7616 C   0  0  0  0  0  0  0  0  0  0  0  0
   14.7452   14.9116   28.9528 C   0  0  0  0  0  0  0  0  0  0  0  0
   15.3576   14.6342   30.1325 F   0  0  0  0  0  0  0  0  0  0  0  0
   13.4588   14.4795   29.1272 F   0  0  0  0  0  0  0  0  0  0  0  0
   15.2828   14.0589   28.0326 F   0  0  0  0  0  0  0  0  0  0  0  0
   17.1801   16.8177   29.2957 C   0  0  0  0  0  0  0  0  0  0  0  0
   17.9302   15.8557   28.4873 N   0  0  0  0  0  0  0  0  0  0  0  0
   19.0989   16.4251   27.7952 C   0  0  0  0  0  0  0  0  0  0  0  0
   19.8123   15.3494   26.9410 C   0  0  0  0  0  0  0  0  0  0  0  0
   20.2364   14.1463   27.6852 N   0  0  0  0  0  0  0  0  0  0  0  0
   19.0924   13.6357   28.4678 C   0  0  0  0  0  0  0  0  0  0  0  0
   18.3440   14.6998   29.3042 C   0  0  0  0  0  0  0  0  0  0  0  0
   21.3917   14.4231   28.5340 C   0  0  0  0  0  0  0  0  0  0  0  0
  5  6  1  0  0  0
  6  7  1  0  0  0
  6 11  2  0  0  0
  7  8  2  0  0  0
  8  9  1  0  0  0
  9 10  2  0  0  0
  9  1  1  0  0  0
 10 11  1  0  0  0
 11 12  1  0  0  0
 12 13  3  0  0  0
 13 14  1  0  0  0
 14 15  2  0  0  0
 14 18  1  0  0  0
 15 16  1  0  0  0
 16 17  2  0  0  0
 17 18  1  0  0  0
 17 22  1  0  0  0
 18 19  1  0  0  0
 19 20  2  0  0  0
 20 21  1  0  0  0
 21 22  2  0  0  0
  1  2  2  0  0  0
  1  3  1  0  0  0
  3 23  1  0  0  0
  3  4  1  0  0  0
 23 24  1  0  0  0
 23 28  2  0  0  0
 24 25  2  0  0  0
 25 26  1  0  0  0
 26 27  2  0  0  0
 26 33  1  0  0  0
 27 28  1  0  0  0
 27 29  1  0  0  0
 29 30  1  0  0  0
 29 31  1  0  0  0
 29 32  1  0  0  0
 33 34  1  0  0  0
 34 35  1  0  0  0
 34 39  1  0  0  0
 35 36  1  0  0  0
 36 37  1  0  0  0
 37 38  1  0  0  0
 37 40  1  0  0  0
 38 39  1  0  0  0
M  END
> <minimizedAffinity>
-11.23401

$$$$



 40 44  0  0  0  0  0  0  0  0999 V2000
   11.5334   18.3031   26.5333 C   0  0  0  0  0  0  0  0  0  0  0  0
   12.0039   19.2087   27.2139 O   0  0  0  0  0  0  0  0  0  0  0  0
   11.9791   16.9877   26.4902 N   0  0  0  0  0  0  0  0  0  0  0  0
   11.6234   16.3987   25.7482 H   0  0  0  0  0  0  0  0  0  0  0  0
    7.1250   19.7914   23.0711 C   0  0  0  0  0  0  0  0  0  0  0  0
    8.2902   19.3760   23.9286 C   0  0  0  0  0  0  0  0  0  0  0  0
    8.1902   19.5144   25.3191 C   0  0  0  0  0  0  0  0  0  0  0  0
    9.2587   19.1623   26.1403 C   0  0  0  0  0  0  0  0  0  0  0  0
   10.4472   18.6677   25.5880 C   0  0  0  0  0  0  0  0  0  0  0  0
   10.5561   18.5043   24.2050 C   0  0  0  0  0  0  0  0  0  0  0  0
    9.4822   18.8642   23.3760 C   0  0  0  0  0  0  0  0  0  0  0  0
    9.6327   18.7175   21.9575 C   0  0  0  0  0  0  0  0  0  0  0  0
    9.7350   18.5558   20.7723 C   0  0  0  0  0  0  0  0  0  0  0  0
    9.8326   18.3049   19.3785 C   0  0  0  0  0  0  0  0  0  0  0  0
   10.1269   17.1122   18.7518 C   0  0  0  0  0  0  0  0  0  0  0  0
   10.1162   17.2493   17.3853 N   0  0  0  0  0  0  0  0  0  0  0  0
    9.8177   18.5105   17.1733 C   0  0  0  0  0  0  0  0  0  0  0  0
    9.6377   19.2078   18.3612 N   0  0  0  0  0  0  0  0  0  0  0  0
    9.3172   20.5340   18.4985 N   0  0  0  0  0  0  0  0  0  0  0  0
    9.1914   21.1400   17.3562 C   0  0  0  0  0  0  0  0  0  0  0  0
    9.3578   20.5333   16.0145 C   0  0  0  0  0  0  0  0  0  0  0  0
    9.6668   19.2351   15.9660 C   0  0  0  0  0  0  0  0  0  0  0  0
   13.0972   16.4980   27.2091 C   0  0  0  0  0  0  0  0  0  0  0  0
   13.0906   15.2733   27.8703 C   0  0  0  0  0  0  0  0  0  0  0  0
   14.1602   14.8913   28.6771 C   0  0  0  0  0  0  0  0  0  0  0  0
   15.2782   15.7228   28.8462 C   0  0  0  0  0  0  0  0  0  0  0  0
   15.3415   16.9345   28.1242 C   0  0  0  0  0  0  0  0  0  0  0  0
   14.2433   17.2963   27.3000 C   0  0  0  0  0  0  0  0  0  0  0  0
   16.4917   17.9216   28.2070 C   0  0  0  0  0  0  0  0  0  0  0  0
   17.0290   18.1475   29.4334 F   0  0  0  0  0  0  0  0  0  0  0  0
   17.5489   17.5082   27.4432 F   0  0  0  0  0  0  0  0  0  0  0  0
   16.1513   19.1451   27.7069 F   0  0  0  0  0  0  0  0  0  0  0  0
   16.3282   15.2826   29.8466 C   0  0  0  0  0  0  0  0  0  0  0  0
   17.3984   14.4924   29.2367 N   0  0  0  0  0  0  0  0  0  0  0  0
   17.1552   14.1231   27.8319 C   0  0  0  0  0  0  0  0  0  0  0  0
   18.3181   13.2646   27.2780 C   0  0  0  0  0  0  0  0  0  0  0  0
   19.6538   13.8853   27.3851 N   0  0  0  0  0  0  0  0  0  0  0  0
   19.8567   14.3560   28.7705 C   0  0  0  0  0  0  0  0  0  0  0  0
   18.6927   15.1889   29.3563 C   0  0  0  0  0  0  0  0  0  0  0  0
   19.8197   14.9658   26.4172 C   0  0  0  0  0  0  0  0  0  0  0  0
  5  6  1  0  0  0
  6  7  1  0  0  0
  6 11  2  0  0  0
  7  8  2  0  0  0
  8  9  1  0  0  0
  9 10  2  0  0  0
  9  1  1  0  0  0
 10 11  1  0  0  0
 11 12  1  0  0  0
 12 13  3  0  0  0
 13 14  1  0  0  0
 14 15  2  0  0  0
 14 18  1  0  0  0
 15 16  1  0  0  0
 16 17  2  0  0  0
 17 18  1  0  0  0
 17 22  1  0  0  0
 18 19  1  0  0  0
 19 20  2  0  0  0
 20 21  1  0  0  0
 21 22  2  0  0  0
  1  2  2  0  0  0
  1  3  1  0  0  0
  3 23  1  0  0  0
  3  4  1  0  0  0
 23 24  1  0  0  0
 23 28  2  0  0  0
 24 25  2  0  0  0
 25 26  1  0  0  0
 26 27  2  0  0  0
 26 33  1  0  0  0
 27 28  1  0  0  0
 27 29  1  0  0  0
 29 30  1  0  0  0
 29 31  1  0  0  0
 29 32  1  0  0  0
 33 34  1  0  0  0
 34 35  1  0  0  0
 34 39  1  0  0  0
 35 36  1  0  0  0
 36 37  1  0  0  0
 37 38  1  0  0  0
 37 40  1  0  0  0
 38 39  1  0  0  0
M  END
> <minimizedAffinity>
-11.08897

$$$$



 40 44  0  0  0  0  0  0  0  0999 V2000
   12.1774   17.8012   25.4565 C   0  0  0  0  0  0  0  0  0  0  0  0
   13.0930   17.6446   24.6554 O   0  0  0  0  0  0  0  0  0  0  0  0
   12.1877   17.4453   26.7997 N   0  0  0  0  0  0  0  0  0  0  0  0
   11.3038   17.4573   27.2923 H   0  0  0  0  0  0  0  0  0  0  0  0
    7.0665   19.8414   23.6255 C   0  0  0  0  0  0  0  0  0  0  0  0
    8.4049   19.2985   24.0492 C   0  0  0  0  0  0  0  0  0  0  0  0
    8.6180   19.0041   25.4022 C   0  0  0  0  0  0  0  0  0  0  0  0
    9.8526   18.5232   25.8320 C   0  0  0  0  0  0  0  0  0  0  0  0
   10.8974   18.3295   24.9192 C   0  0  0  0  0  0  0  0  0  0  0  0
   10.6952   18.5988   23.5635 C   0  0  0  0  0  0  0  0  0  0  0  0
    9.4534   19.0890   23.1300 C   0  0  0  0  0  0  0  0  0  0  0  0
    9.2834   19.3885   21.7380 C   0  0  0  0  0  0  0  0  0  0  0  0
    9.1756   19.6687   20.5756 C   0  0  0  0  0  0  0  0  0  0  0  0
    9.0892   20.0490   19.2107 C   0  0  0  0  0  0  0  0  0  0  0  0
    8.7006   21.2674   18.6945 C   0  0  0  0  0  0  0  0  0  0  0  0
    8.7575   21.2703   17.3223 N   0  0  0  0  0  0  0  0  0  0  0  0
    9.1772   20.0689   16.9978 C   0  0  0  0  0  0  0  0  0  0  0  0
    9.3921   19.2745   18.1169 N   0  0  0  0  0  0  0  0  0  0  0  0
    9.8313   17.9755   18.1341 N   0  0  0  0  0  0  0  0  0  0  0  0
   10.0408   17.5016   16.9427 C   0  0  0  0  0  0  0  0  0  0  0  0
    9.8515   18.2229   15.6621 C   0  0  0  0  0  0  0  0  0  0  0  0
    9.4243   19.4863   15.7309 C   0  0  0  0  0  0  0  0  0  0  0  0
   13.2662   16.7927   27.4461 C   0  0  0  0  0  0  0  0  0  0  0  0
   13.1854   15.4832   27.9106 C   0  0  0  0  0  0  0  0  0  0  0  0
   14.2193   14.9260   28.6599 C   0  0  0  0  0  0  0  0  0  0  0  0
   15.3748   15.6615   28.9666 C   0  0  0  0  0  0  0  0  0  0  0  0
   15.5126   16.9645   28.4405 C   0  0  0  0  0  0  0  0  0  0  0  0
   14.4494   17.5059   27.6706 C   0  0  0  0  0  0  0  0  0  0  0  0
   16.7096   17.8650   28.6863 C   0  0  0  0  0  0  0  0  0  0  0  0
   17.2958   17.7988   29.9092 F   0  0  0  0  0  0  0  0  0  0  0  0
   17.7214   17.5866   27.8083 F   0  0  0  0  0  0  0  0  0  0  0  0
   16.4108   19.1800   28.4756 F   0  0  0  0  0  0  0  0  0  0  0  0
   16.3826   15.0182   29.8980 C   0  0  0  0  0  0  0  0  0  0  0  0
   17.4290   14.2852   29.1843 N   0  0  0  0  0  0  0  0  0  0  0  0
   17.1486   14.0641   27.7555 C   0  0  0  0  0  0  0  0  0  0  0  0
   18.2881   13.2565   27.0883 C   0  0  0  0  0  0  0  0  0  0  0  0
   19.6331   13.8509   27.2254 N   0  0  0  0  0  0  0  0  0  0  0  0
   19.8739   14.1750   28.6463 C   0  0  0  0  0  0  0  0  0  0  0  0
   18.7337   14.9540   29.3428 C   0  0  0  0  0  0  0  0  0  0  0  0
   19.7886   15.0234   26.3694 C   0  0  0  0  0  0  0  0  0  0  0  0
  5  6  1  0  0  0
  6  7  1  0  0  0
  6 11  2  0  0  0
  7  8  2  0  0  0
  8  9  1  0  0  0
  9 10  2  0  0  0
  9  1  1  0  0  0
 10 11  1  0  0  0
 11 12  1  0  0  0
 12 13  3  0  0  0
 13 14  1  0  0  0
 14 15  2  0  0  0
 14 18  1  0  0  0
 15 16  1  0  0  0
 16 17  2  0  0  0
 17 18  1  0  0  0
 17 22  1  0  0  0
 18 19  1  0  0  0
 19 20  2  0  0  0
 20 21  1  0  0  0
 21 22  2  0  0  0
  1  2  2  0  0  0
  1  3  1  0  0  0
  3 23  1  0  0  0
  3  4  1  0  0  0
 23 24  1  0  0  0
 23 28  2  0  0  0
 24 25  2  0  0  0
 25 26  1  0  0  0
 26 27  2  0  0  0
 26 33  1  0  0  0
 27 28  1  0  0  0
 27 29  1  0  0  0
 29 30  1  0  0  0
 29 31  1  0  0  0
 29 32  1  0  0  0
 33 34  1  0  0  0
 34 35  1  0  0  0
 34 39  1  0  0  0
 35 36  1  0  0  0
 36 37  1  0  0  0
 37 38  1  0  0  0
 37 40  1  0  0  0
 38 39  1  0  0  0
M  END
> <minimizedAffinity>
-11.01416

$$$$



 40 44  0  0  0  0  0  0  0  0999 V2000
   12.6185   15.6046   18.0497 C   0  0  0  0  0  0  0  0  0  0  0  0
   12.8361   16.2904   17.0562 O   0  0  0  0  0  0  0  0  0  0  0  0
   11.7041   15.8822   19.0584 N   0  0  0  0  0  0  0  0  0  0  0  0
   11.7644   15.3336   19.9067 H   0  0  0  0  0  0  0  0  0  0  0  0
   15.8719   10.9152   19.0794 C   0  0  0  0  0  0  0  0  0  0  0  0
   15.0650   12.1491   18.7763 C   0  0  0  0  0  0  0  0  0  0  0  0
   14.0619   12.5388   19.6733 C   0  0  0  0  0  0  0  0  0  0  0  0
   13.2806   13.6617   19.4111 C   0  0  0  0  0  0  0  0  0  0  0  0
   13.4851   14.4146   18.2477 C   0  0  0  0  0  0  0  0  0  0  0  0
   14.4945   14.0516   17.3530 C   0  0  0  0  0  0  0  0  0  0  0  0
   15.2787   12.9169   17.6131 C   0  0  0  0  0  0  0  0  0  0  0  0
   16.2859   12.5476   16.6616 C   0  0  0  0  0  0  0  0  0  0  0  0
   17.1355   12.1996   15.8880 C   0  0  0  0  0  0  0  0  0  0  0  0
   18.1549   11.7400   15.0135 C   0  0  0  0  0  0  0  0  0  0  0  0
   18.0086   11.0084   13.8537 C   0  0  0  0  0  0  0  0  0  0  0  0
   19.2232   10.7606   13.2622 N   0  0  0  0  0  0  0  0  0  0  0  0
   20.1061   11.3336   14.0477 C   0  0  0  0  0  0  0  0  0  0  0  0
   19.5074   11.9459   15.1414 N   0  0  0  0  0  0  0  0  0  0  0  0
   20.1360   12.6325   16.1484 N   0  0  0  0  0  0  0  0  0  0  0  0
   21.4264   12.6668   16.0019 C   0  0  0  0  0  0  0  0  0  0  0  0
   22.2037   12.0583   14.8967 C   0  0  0  0  0  0  0  0  0  0  0  0
   21.5170   11.4092   13.9530 C   0  0  0  0  0  0  0  0  0  0  0  0
   10.9015   17.0483   19.1120 C   0  0  0  0  0  0  0  0  0  0  0  0
   10.4254   17.6887   17.9716 C   0  0  0  0  0  0  0  0  0  0  0  0
    9.7553   18.9066   18.0634 C   0  0  0  0  0  0  0  0  0  0  0  0
    9.5342   19.5245   19.3041 C   0  0  0  0  0  0  0  0  0  0  0  0
    9.9393   18.8559   20.4799 C   0  0  0  0  0  0  0  0  0  0  0  0
   10.6107   17.6104   20.3603 C   0  0  0  0  0  0  0  0  0  0  0  0
    9.7557   19.4045   21.8834 C   0  0  0  0  0  0  0  0  0  0  0  0
   10.1352   20.6898   22.1022 F   0  0  0  0  0  0  0  0  0  0  0  0
    8.4394   19.3703   22.2552 F   0  0  0  0  0  0  0  0  0  0  0  0
   10.4062   18.6492   22.8157 F   0  0  0  0  0  0  0  0  0  0  0  0
    8.9172   20.9087   19.2923 C   0  0  0  0  0  0  0  0  0  0  0  0
    7.7841   21.0338   20.2099 N   0  0  0  0  0  0  0  0  0  0  0  0
    7.7991   22.2572   21.0297 C   0  0  0  0  0  0  0  0  0  0  0  0
    6.5862   22.2921   21.9907 C   0  0  0  0  0  0  0  0  0  0  0  0
    5.2692   22.1731   21.3330 N   0  0  0  0  0  0  0  0  0  0  0  0
    5.2877   21.0080   20.4252 C   0  0  0  0  0  0  0  0  0  0  0  0
    6.5078   20.9351   19.4777 C   0  0  0  0  0  0  0  0  0  0  0  0
    4.9108   23.4012   20.6293 C   0  0  0  0  0  0  0  0  0  0  0  0
  5  6  1  0  0  0
  6  7  1  0  0  0
  6 11  2  0  0  0
  7  8  2  0  0  0
  8  9  1  0  0  0
  9 10  2  0  0  0
  9  1  1  0  0  0
 10 11  1  0  0  0
 11 12  1  0  0  0
 12 13  3  0  0  0
 13 14  1  0  0  0
 14 15  2  0  0  0
 14 18  1  0  0  0
 15 16  1  0  0  0
 16 17  2  0  0  0
 17 18  1  0  0  0
 17 22  1  0  0  0
 18 19  1  0  0  0
 19 20  2  0  0  0
 20 21  1  0  0  0
 21 22  2  0  0  0
  1  2  2  0  0  0
  1  3  1  0  0  0
  3 23  1  0  0  0
  3  4  1  0  0  0
 23 24  1  0  0  0
 23 28  2  0  0  0
 24 25  2  0  0  0
 25 26  1  0  0  0
 26 27  2  0  0  0
 26 33  1  0  0  0
 27 28  1  0  0  0
 27 29  1  0  0  0
 29 30  1  0  0  0
 29 31  1  0  0  0
 29 32  1  0  0  0
 33 34  1  0  0  0
 34 35  1  0  0  0
 34 39  1  0  0  0
 35 36  1  0  0  0
 36 37  1  0  0  0
 37 38  1  0  0  0
 37 40  1  0  0  0
 38 39  1  0  0  0
M  END
> <minimizedAffinity>
-10.96419

$$$$



 40 44  0  0  0  0  0  0  0  0999 V2000
   11.1152   18.5379   26.3747 C   0  0  0  0  0  0  0  0  0  0  0  0
   11.4798   19.4502   27.1092 O   0  0  0  0  0  0  0  0  0  0  0  0
   11.7266   17.2980   26.2351 N   0  0  0  0  0  0  0  0  0  0  0  0
   11.4333   16.7178   25.4595 H   0  0  0  0  0  0  0  0  0  0  0  0
    6.4802   19.6929   23.0857 C   0  0  0  0  0  0  0  0  0  0  0  0
    7.7042   19.3648   23.8977 C   0  0  0  0  0  0  0  0  0  0  0  0
    7.6541   19.5185   25.2893 C   0  0  0  0  0  0  0  0  0  0  0  0
    8.7763   19.2469   26.0684 C   0  0  0  0  0  0  0  0  0  0  0  0
    9.9694   18.8189   25.4722 C   0  0  0  0  0  0  0  0  0  0  0  0
   10.0303   18.6409   24.0880 C   0  0  0  0  0  0  0  0  0  0  0  0
    8.9019   18.9199   23.3012 C   0  0  0  0  0  0  0  0  0  0  0  0
    9.0017   18.7605   21.8796 C   0  0  0  0  0  0  0  0  0  0  0  0
    9.1070   18.6670   20.6874 C   0  0  0  0  0  0  0  0  0  0  0  0
    9.2514   18.6179   19.2760 C   0  0  0  0  0  0  0  0  0  0  0  0
    8.5828   19.3666   18.3303 C   0  0  0  0  0  0  0  0  0  0  0  0
    8.9993   19.0543   17.0594 N   0  0  0  0  0  0  0  0  0  0  0  0
    9.9139   18.1258   17.2208 C   0  0  0  0  0  0  0  0  0  0  0  0
   10.1064   17.8145   18.5608 N   0  0  0  0  0  0  0  0  0  0  0  0
   10.9839   16.8953   19.0761 N   0  0  0  0  0  0  0  0  0  0  0  0
   11.6682   16.2851   18.1556 C   0  0  0  0  0  0  0  0  0  0  0  0
   11.5694   16.5048   16.6935 C   0  0  0  0  0  0  0  0  0  0  0  0
   10.6930   17.4200   16.2719 C   0  0  0  0  0  0  0  0  0  0  0  0
   12.9150   16.9123   26.9028 C   0  0  0  0  0  0  0  0  0  0  0  0
   13.0008   15.7655   27.6868 C   0  0  0  0  0  0  0  0  0  0  0  0
   14.1449   15.4953   28.4344 C   0  0  0  0  0  0  0  0  0  0  0  0
   15.2471   16.3641   28.4188 C   0  0  0  0  0  0  0  0  0  0  0  0
   15.2131   17.4927   27.5710 C   0  0  0  0  0  0  0  0  0  0  0  0
   14.0397   17.7403   26.8107 C   0  0  0  0  0  0  0  0  0  0  0  0
   16.3355   18.5076   27.4509 C   0  0  0  0  0  0  0  0  0  0  0  0
   16.8725   18.9791   28.6054 F   0  0  0  0  0  0  0  0  0  0  0  0
   17.4000   17.9835   26.7695 F   0  0  0  0  0  0  0  0  0  0  0  0
   15.9582   19.6027   26.7288 F   0  0  0  0  0  0  0  0  0  0  0  0
   16.3896   16.0564   29.3660 C   0  0  0  0  0  0  0  0  0  0  0  0
   17.6152   15.6633   28.6695 N   0  0  0  0  0  0  0  0  0  0  0  0
   18.8218   16.3828   29.1114 C   0  0  0  0  0  0  0  0  0  0  0  0
   20.0615   15.9294   28.3029 C   0  0  0  0  0  0  0  0  0  0  0  0
   20.3298   14.4776   28.3397 N   0  0  0  0  0  0  0  0  0  0  0  0
   19.0893   13.7498   28.0029 C   0  0  0  0  0  0  0  0  0  0  0  0
   17.8305   14.2083   28.7756 C   0  0  0  0  0  0  0  0  0  0  0  0
   20.8636   14.0658   29.6348 C   0  0  0  0  0  0  0  0  0  0  0  0
  5  6  1  0  0  0
  6  7  1  0  0  0
  6 11  2  0  0  0
  7  8  2  0  0  0
  8  9  1  0  0  0
  9 10  2  0  0  0
  9  1  1  0  0  0
 10 11  1  0  0  0
 11 12  1  0  0  0
 12 13  3  0  0  0
 13 14  1  0  0  0
 14 15  2  0  0  0
 14 18  1  0  0  0
 15 16  1  0  0  0
 16 17  2  0  0  0
 17 18  1  0  0  0
 17 22  1  0  0  0
 18 19  1  0  0  0
 19 20  2  0  0  0
 20 21  1  0  0  0
 21 22  2  0  0  0
  1  2  2  0  0  0
  1  3  1  0  0  0
  3 23  1  0  0  0
  3  4  1  0  0  0
 23 24  1  0  0  0
 23 28  2  0  0  0
 24 25  2  0  0  0
 25 26  1  0  0  0
 26 27  2  0  0  0
 26 33  1  0  0  0
 27 28  1  0  0  0
 27 29  1  0  0  0
 29 30  1  0  0  0
 29 31  1  0  0  0
 29 32  1  0  0  0
 33 34  1  0  0  0
 34 35  1  0  0  0
 34 39  1  0  0  0
 35 36  1  0  0  0
 36 37  1  0  0  0
 37 38  1  0  0  0
 37 40  1  0  0  0
 38 39  1  0  0  0
M  END
> <minimizedAffinity>
-10.68031

$$$$



 40 44  0  0  0  0  0  0  0  0999 V2000
   11.5612   16.0010   17.2200 C   0  0  0  0  0  0  0  0  0  0  0  0
   11.2763   15.2552   16.2887 O   0  0  0  0  0  0  0  0  0  0  0  0
   12.7044   15.9365   18.0073 N   0  0  0  0  0  0  0  0  0  0  0  0
   12.7192   16.4897   18.8545 H   0  0  0  0  0  0  0  0  0  0  0  0
    7.5639   20.0134   18.4678 C   0  0  0  0  0  0  0  0  0  0  0  0
    8.6165   18.9724   18.1964 C   0  0  0  0  0  0  0  0  0  0  0  0
    9.0208   18.7478   16.8740 C   0  0  0  0  0  0  0  0  0  0  0  0
    9.9751   17.7751   16.5851 C   0  0  0  0  0  0  0  0  0  0  0  0
   10.5414   17.0076   17.6110 C   0  0  0  0  0  0  0  0  0  0  0  0
   10.1644   17.2328   18.9370 C   0  0  0  0  0  0  0  0  0  0  0  0
    9.1986   18.2086   19.2288 C   0  0  0  0  0  0  0  0  0  0  0  0
    8.8057   18.3963   20.5951 C   0  0  0  0  0  0  0  0  0  0  0  0
    8.5051   18.5890   21.7413 C   0  0  0  0  0  0  0  0  0  0  0  0
    8.1987   18.8586   23.1010 C   0  0  0  0  0  0  0  0  0  0  0  0
    6.9570   19.0688   23.6630 C   0  0  0  0  0  0  0  0  0  0  0  0
    7.0506   19.2844   25.0162 N   0  0  0  0  0  0  0  0  0  0  0  0
    8.3340   19.2067   25.2840 C   0  0  0  0  0  0  0  0  0  0  0  0
    9.0872   18.9520   24.1449 N   0  0  0  0  0  0  0  0  0  0  0  0
   10.4491   18.8093   24.0717 N   0  0  0  0  0  0  0  0  0  0  0  0
   11.0300   18.9464   25.2256 C   0  0  0  0  0  0  0  0  0  0  0  0
   10.3635   19.2241   26.5197 C   0  0  0  0  0  0  0  0  0  0  0  0
    9.0337   19.3461   26.5073 C   0  0  0  0  0  0  0  0  0  0  0  0
   13.7115   14.9489   17.8760 C   0  0  0  0  0  0  0  0  0  0  0  0
   14.6766   14.9851   16.8736 C   0  0  0  0  0  0  0  0  0  0  0  0
   15.5635   13.9253   16.6973 C   0  0  0  0  0  0  0  0  0  0  0  0
   15.5174   12.7919   17.5239 C   0  0  0  0  0  0  0  0  0  0  0  0
   14.5986   12.7672   18.5957 C   0  0  0  0  0  0  0  0  0  0  0  0
   13.7126   13.8645   18.7609 C   0  0  0  0  0  0  0  0  0  0  0  0
   14.4480   11.6114   19.5682 C   0  0  0  0  0  0  0  0  0  0  0  0
   13.9935   10.4339   19.0675 F   0  0  0  0  0  0  0  0  0  0  0  0
   15.6482   11.2956   20.1444 F   0  0  0  0  0  0  0  0  0  0  0  0
   13.6268   11.9262   20.6119 F   0  0  0  0  0  0  0  0  0  0  0  0
   16.4312   11.6355   17.1712 C   0  0  0  0  0  0  0  0  0  0  0  0
   17.5176   12.0237   16.2707 N   0  0  0  0  0  0  0  0  0  0  0  0
   18.8648   11.8826   16.8487 C   0  0  0  0  0  0  0  0  0  0  0  0
   19.9475   12.3439   15.8433 C   0  0  0  0  0  0  0  0  0  0  0  0
   19.9136   11.6575   14.5360 N   0  0  0  0  0  0  0  0  0  0  0  0
   18.5363   11.7025   14.0040 C   0  0  0  0  0  0  0  0  0  0  0  0
   17.4343   11.2765   15.0020 C   0  0  0  0  0  0  0  0  0  0  0  0
   20.4091   10.2880   14.6389 C   0  0  0  0  0  0  0  0  0  0  0  0
  5  6  1  0  0  0
  6  7  1  0  0  0
  6 11  2  0  0  0
  7  8  2  0  0  0
  8  9  1  0  0  0
  9 10  2  0  0  0
  9  1  1  0  0  0
 10 11  1  0  0  0
 11 12  1  0  0  0
 12 13  3  0  0  0
 13 14  1  0  0  0
 14 15  2  0  0  0
 14 18  1  0  0  0
 15 16  1  0  0  0
 16 17  2  0  0  0
 17 18  1  0  0  0
 17 22  1  0  0  0
 18 19  1  0  0  0
 19 20  2  0  0  0
 20 21  1  0  0  0
 21 22  2  0  0  0
  1  2  2  0  0  0
  1  3  1  0  0  0
  3 23  1  0  0  0
  3  4  1  0  0  0
 23 24  1  0  0  0
 23 28  2  0  0  0
 24 25  2  0  0  0
 25 26  1  0  0  0
 26 27  2  0  0  0
 26 33  1  0  0  0
 27 28  1  0  0  0
 27 29  1  0  0  0
 29 30  1  0  0  0
 29 31  1  0  0  0
 29 32  1  0  0  0
 33 34  1  0  0  0
 34 35  1  0  0  0
 34 39  1  0  0  0
 35 36  1  0  0  0
 36 37  1  0  0  0
 37 38  1  0  0  0
 37 40  1  0  0  0
 38 39  1  0  0  0
M  END
> <minimizedAffinity>
-10.56257

$$$$



 40 44  0  0  0  0  0  0  0  0999 V2000
    9.8148   18.5423   20.8101 C   0  0  0  0  0  0  0  0  0  0  0  0
    8.7160   19.0627   20.9730 O   0  0  0  0  0  0  0  0  0  0  0  0
   10.8820   18.5749   21.6994 N   0  0  0  0  0  0  0  0  0  0  0  0
   11.7840   18.2695   21.3571 H   0  0  0  0  0  0  0  0  0  0  0  0
   10.5563   16.1680   15.5710 C   0  0  0  0  0  0  0  0  0  0  0  0
   10.3956   16.7451   16.9517 C   0  0  0  0  0  0  0  0  0  0  0  0
    9.3464   17.6419   17.1923 C   0  0  0  0  0  0  0  0  0  0  0  0
    9.1834   18.2130   18.4522 C   0  0  0  0  0  0  0  0  0  0  0  0
   10.0661   17.9009   19.4941 C   0  0  0  0  0  0  0  0  0  0  0  0
   11.1053   16.9931   19.2767 C   0  0  0  0  0  0  0  0  0  0  0  0
   11.2741   16.4213   18.0060 C   0  0  0  0  0  0  0  0  0  0  0  0
   12.3688   15.5180   17.8013 C   0  0  0  0  0  0  0  0  0  0  0  0
   13.3023   14.7746   17.6701 C   0  0  0  0  0  0  0  0  0  0  0  0
   14.4340   13.9239   17.5660 C   0  0  0  0  0  0  0  0  0  0  0  0
   14.7777   13.0974   16.5169 C   0  0  0  0  0  0  0  0  0  0  0  0
   15.9549   12.4354   16.7667 N   0  0  0  0  0  0  0  0  0  0  0  0
   16.3317   12.8502   17.9545 C   0  0  0  0  0  0  0  0  0  0  0  0
   15.4332   13.7613   18.4950 N   0  0  0  0  0  0  0  0  0  0  0  0
   15.5253   14.3877   19.7114 N   0  0  0  0  0  0  0  0  0  0  0  0
   16.5858   14.0387   20.3757 C   0  0  0  0  0  0  0  0  0  0  0  0
   17.6257   13.0797   19.9341 C   0  0  0  0  0  0  0  0  0  0  0  0
   17.4647   12.5145   18.7349 C   0  0  0  0  0  0  0  0  0  0  0  0
   10.8731   19.2683   22.9347 C   0  0  0  0  0  0  0  0  0  0  0  0
   10.4321   20.5826   23.0581 C   0  0  0  0  0  0  0  0  0  0  0  0
   10.5668   21.2713   24.2617 C   0  0  0  0  0  0  0  0  0  0  0  0
   11.1451   20.6642   25.3873 C   0  0  0  0  0  0  0  0  0  0  0  0
   11.5284   19.3076   25.3082 C   0  0  0  0  0  0  0  0  0  0  0  0
   11.3707   18.6244   24.0734 C   0  0  0  0  0  0  0  0  0  0  0  0
   12.1573   18.5275   26.4486 C   0  0  0  0  0  0  0  0  0  0  0  0
   11.9844   19.0151   27.7040 F   0  0  0  0  0  0  0  0  0  0  0  0
   11.6585   17.2548   26.5061 F   0  0  0  0  0  0  0  0  0  0  0  0
   13.5028   18.3726   26.2799 F   0  0  0  0  0  0  0  0  0  0  0  0
   11.3710   21.5335   26.6080 C   0  0  0  0  0  0  0  0  0  0  0  0
   12.6532   22.2380   26.5748 N   0  0  0  0  0  0  0  0  0  0  0  0
   12.5441   23.6859   26.3282 C   0  0  0  0  0  0  0  0  0  0  0  0
   13.9443   24.3438   26.2773 C   0  0  0  0  0  0  0  0  0  0  0  0
   14.7775   24.1243   27.4767 N   0  0  0  0  0  0  0  0  0  0  0  0
   14.7990   22.6810   27.7908 C   0  0  0  0  0  0  0  0  0  0  0  0
   13.4130   21.9953   27.8152 C   0  0  0  0  0  0  0  0  0  0  0  0
   14.3044   24.9168   28.6080 C   0  0  0  0  0  0  0  0  0  0  0  0
  5  6  1  0  0  0
  6  7  1  0  0  0
  6 11  2  0  0  0
  7  8  2  0  0  0
  8  9  1  0  0  0
  9 10  2  0  0  0
  9  1  1  0  0  0
 10 11  1  0  0  0
 11 12  1  0  0  0
 12 13  3  0  0  0
 13 14  1  0  0  0
 14 15  2  0  0  0
 14 18  1  0  0  0
 15 16  1  0  0  0
 16 17  2  0  0  0
 17 18  1  0  0  0
 17 22  1  0  0  0
 18 19  1  0  0  0
 19 20  2  0  0  0
 20 21  1  0  0  0
 21 22  2  0  0  0
  1  2  2  0  0  0
  1  3  1  0  0  0
  3 23  1  0  0  0
  3  4  1  0  0  0
 23 24  1  0  0  0
 23 28  2  0  0  0
 24 25  2  0  0  0
 25 26  1  0  0  0
 26 27  2  0  0  0
 26 33  1  0  0  0
 27 28  1  0  0  0
 27 29  1  0  0  0
 29 30  1  0  0  0
 29 31  1  0  0  0
 29 32  1  0  0  0
 33 34  1  0  0  0
 34 35  1  0  0  0
 34 39  1  0  0  0
 35 36  1  0  0  0
 36 37  1  0  0  0
 37 38  1  0  0  0
 37 40  1  0  0  0
 38 39  1  0  0  0
M  END
> <minimizedAffinity>
-10.50378

$$$$



 40 44  0  0  0  0  0  0  0  0999 V2000
    9.1474   18.1535   20.5109 C   0  0  0  0  0  0  0  0  0  0  0  0
    8.3251   17.3608   20.9583 O   0  0  0  0  0  0  0  0  0  0  0  0
    9.5054   19.3736   21.0711 N   0  0  0  0  0  0  0  0  0  0  0  0
   10.0510   20.0068   20.5007 H   0  0  0  0  0  0  0  0  0  0  0  0
   11.2869   17.0532   15.2338 C   0  0  0  0  0  0  0  0  0  0  0  0
   10.7550   17.2928   16.6213 C   0  0  0  0  0  0  0  0  0  0  0  0
    9.7029   18.2014   16.7950 C   0  0  0  0  0  0  0  0  0  0  0  0
    9.2031   18.4647   18.0682 C   0  0  0  0  0  0  0  0  0  0  0  0
    9.7461   17.8274   19.1912 C   0  0  0  0  0  0  0  0  0  0  0  0
   10.7818   16.9035   19.0335 C   0  0  0  0  0  0  0  0  0  0  0  0
   11.2902   16.6416   17.7516 C   0  0  0  0  0  0  0  0  0  0  0  0
   12.3758   15.7137   17.6217 C   0  0  0  0  0  0  0  0  0  0  0  0
   13.2887   14.9366   17.5583 C   0  0  0  0  0  0  0  0  0  0  0  0
   14.3793   14.0280   17.5461 C   0  0  0  0  0  0  0  0  0  0  0  0
   14.7293   13.1393   16.5513 C   0  0  0  0  0  0  0  0  0  0  0  0
   15.8584   12.4328   16.8864 N   0  0  0  0  0  0  0  0  0  0  0  0
   16.1999   12.8819   18.0723 C   0  0  0  0  0  0  0  0  0  0  0  0
   15.3245   13.8591   18.5289 N   0  0  0  0  0  0  0  0  0  0  0  0
   15.3914   14.5345   19.7205 N   0  0  0  0  0  0  0  0  0  0  0  0
   16.4007   14.1647   20.4501 C   0  0  0  0  0  0  0  0  0  0  0  0
   17.4101   13.1374   20.1012 C   0  0  0  0  0  0  0  0  0  0  0  0
   17.2768   12.5271   18.9209 C   0  0  0  0  0  0  0  0  0  0  0  0
    8.9269   19.9151   22.2455 C   0  0  0  0  0  0  0  0  0  0  0  0
    8.0174   20.9684   22.2210 C   0  0  0  0  0  0  0  0  0  0  0  0
    7.5773   21.5598   23.4032 C   0  0  0  0  0  0  0  0  0  0  0  0
    8.0305   21.1124   24.6539 C   0  0  0  0  0  0  0  0  0  0  0  0
    8.8926   19.9954   24.7066 C   0  0  0  0  0  0  0  0  0  0  0  0
    9.3182   19.4035   23.4881 C   0  0  0  0  0  0  0  0  0  0  0  0
    9.4509   19.4043   25.9884 C   0  0  0  0  0  0  0  0  0  0  0  0
   10.1884   20.2241   26.7807 F   0  0  0  0  0  0  0  0  0  0  0  0
    8.4450   18.9591   26.8021 F   0  0  0  0  0  0  0  0  0  0  0  0
   10.2244   18.3055   25.7491 F   0  0  0  0  0  0  0  0  0  0  0  0
    7.6010   21.9030   25.8735 C   0  0  0  0  0  0  0  0  0  0  0  0
    7.9901   23.3120   25.8035 N   0  0  0  0  0  0  0  0  0  0  0  0
    7.3253   24.1754   26.7942 C   0  0  0  0  0  0  0  0  0  0  0  0
    7.7695   25.6489   26.6283 C   0  0  0  0  0  0  0  0  0  0  0  0
    9.2278   25.8700   26.7031 N   0  0  0  0  0  0  0  0  0  0  0  0
    9.9054   24.9279   25.7890 C   0  0  0  0  0  0  0  0  0  0  0  0
    9.4537   23.4541   25.9148 C   0  0  0  0  0  0  0  0  0  0  0  0
    9.7178   25.7417   28.0724 C   0  0  0  0  0  0  0  0  0  0  0  0
  5  6  1  0  0  0
  6  7  1  0  0  0
  6 11  2  0  0  0
  7  8  2  0  0  0
  8  9  1  0  0  0
  9 10  2  0  0  0
  9  1  1  0  0  0
 10 11  1  0  0  0
 11 12  1  0  0  0
 12 13  3  0  0  0
 13 14  1  0  0  0
 14 15  2  0  0  0
 14 18  1  0  0  0
 15 16  1  0  0  0
 16 17  2  0  0  0
 17 18  1  0  0  0
 17 22  1  0  0  0
 18 19  1  0  0  0
 19 20  2  0  0  0
 20 21  1  0  0  0
 21 22  2  0  0  0
  1  2  2  0  0  0
  1  3  1  0  0  0
  3 23  1  0  0  0
  3  4  1  0  0  0
 23 24  1  0  0  0
 23 28  2  0  0  0
 24 25  2  0  0  0
 25 26  1  0  0  0
 26 27  2  0  0  0
 26 33  1  0  0  0
 27 28  1  0  0  0
 27 29  1  0  0  0
 29 30  1  0  0  0
 29 31  1  0  0  0
 29 32  1  0  0  0
 33 34  1  0  0  0
 34 35  1  0  0  0
 34 39  1  0  0  0
 35 36  1  0  0  0
 36 37  1  0  0  0
 37 38  1  0  0  0
 37 40  1  0  0  0
 38 39  1  0  0  0
M  END
> <minimizedAffinity>
-10.48009

$$$$
