


 40 44  0  0  0  0  0  0  0  0999 V2000
   13.0574   15.0971   17.0456 C   0  0  0  0  0  0  0  0  0  0  0  0
   13.2997   15.7717   16.0501 O   0  0  0  0  0  0  0  0  0  0  0  0
   12.0998   15.3720   18.0142 N   0  0  0  0  0  0  0  0  0  0  0  0
   12.1380   14.8377   18.8728 H   0  0  0  0  0  0  0  0  0  0  0  0
   16.3537   10.4851   18.2702 C   0  0  0  0  0  0  0  0  0  0  0  0
   15.5372   11.6997   17.9186 C   0  0  0  0  0  0  0  0  0  0  0  0
   14.4775   12.0686   18.7574 C   0  0  0  0  0  0  0  0  0  0  0  0
   13.6867   13.1728   18.4484 C   0  0  0  0  0  0  0  0  0  0  0  0
   13.9382   13.9275   17.2954 C   0  0  0  0  0  0  0  0  0  0  0  0
   15.0035   13.5854   16.4591 C   0  0  0  0  0  0  0  0  0  0  0  0
   15.7975   12.4694   16.7662 C   0  0  0  0  0  0  0  0  0  0  0  0
   16.8639   12.1209   15.8732 C   0  0  0  0  0  0  0  0  0  0  0  0
   17.7279   11.8020   15.1030 C   0  0  0  0  0  0  0  0  0  0  0  0
   18.7103   11.3789   14.1697 C   0  0  0  0  0  0  0  0  0  0  0  0
   18.5280   10.6114   13.0385 C   0  0  0  0  0  0  0  0  0  0  0  0
   19.7117   10.4177   12.3694 N   0  0  0  0  0  0  0  0  0  0  0  0
   20.6114   11.0591   13.0794 C   0  0  0  0  0  0  0  0  0  0  0  0
   20.0542   11.6638   14.1989 N   0  0  0  0  0  0  0  0  0  0  0  0
   20.7091   12.4096   15.1452 N   0  0  0  0  0  0  0  0  0  0  0  0
   21.9823   12.5130   14.9086 C   0  0  0  0  0  0  0  0  0  0  0  0
   22.7165   11.9218   13.7651 C   0  0  0  0  0  0  0  0  0  0  0  0
   22.0058   11.2118   12.8853 C   0  0  0  0  0  0  0  0  0  0  0  0
   11.2737   16.5228   18.0185 C   0  0  0  0  0  0  0  0  0  0  0  0
   10.8363   17.1322   19.1909 C   0  0  0  0  0  0  0  0  0  0  0  0
    9.9164   18.1778   19.1522 C   0  0  0  0  0  0  0  0  0  0  0  0
    9.4052   18.6534   17.9347 C   0  0  0  0  0  0  0  0  0  0  0  0
    9.8930   18.1029   16.7294 C   0  0  0  0  0  0  0  0  0  0  0  0
   10.8384   17.0454   16.7953 C   0  0  0  0  0  0  0  0  0  0  0  0
    9.4336   18.5275   15.3463 C   0  0  0  0  0  0  0  0  0  0  0  0
    8.4437   19.4544   15.2782 F   0  0  0  0  0  0  0  0  0  0  0  0
   10.4645   19.0775   14.6344 F   0  0  0  0  0  0  0  0  0  0  0  0
    9.0153   17.4648   14.5989 F   0  0  0  0  0  0  0  0  0  0  0  0
    8.3113   19.7003   18.0004 C   0  0  0  0  0  0  0  0  0  0  0  0
    8.2031   20.3273   19.3183 N   0  0  0  0  0  0  0  0  0  0  0  0
    8.3736   21.7901   19.3104 C   0  0  0  0  0  0  0  0  0  0  0  0
    8.2764   22.3646   20.7444 C   0  0  0  0  0  0  0  0  0  0  0  0
    7.0299   22.0322   21.4633 N   0  0  0  0  0  0  0  0  0  0  0  0
    6.7988   20.5756   21.3787 C   0  0  0  0  0  0  0  0  0  0  0  0
    6.9229   19.9741   19.9594 C   0  0  0  0  0  0  0  0  0  0  0  0
    5.8955   22.7907   20.9441 C   0  0  0  0  0  0  0  0  0  0  0  0
  5  6  1  0  0  0
  6  7  1  0  0  0
  6 11  2  0  0  0
  7  8  2  0  0  0
  8  9  1  0  0  0
  9 10  2  0  0  0
  9  1  1  0  0  0
 10 11  1  0  0  0
 11 12  1  0  0  0
 12 13  3  0  0  0
 13 14  1  0  0  0
 14 15  2  0  0  0
 14 18  1  0  0  0
 15 16  1  0  0  0
 16 17  2  0  0  0
 17 18  1  0  0  0
 17 22  1  0  0  0
 18 19  1  0  0  0
 19 20  2  0  0  0
 20 21  1  0  0  0
 21 22  2  0  0  0
  1  2  2  0  0  0
  1  3  1  0  0  0
  3 23  1  0  0  0
  3  4  1  0  0  0
 23 24  1  0  0  0
 23 28  2  0  0  0
 24 25  2  0  0  0
 25 26  1  0  0  0
 26 27  2  0  0  0
 26 33  1  0  0  0
 27 28  1  0  0  0
 27 29  1  0  0  0
 29 30  1  0  0  0
 29 31  1  0  0  0
 29 32  1  0  0  0
 33 34  1  0  0  0
 34 35  1  0  0  0
 34 39  1  0  0  0
 35 36  1  0  0  0
 36 37  1  0  0  0
 37 38  1  0  0  0
 37 40  1  0  0  0
 38 39  1  0  0  0
M  END
> <minimizedAffinity>
-11.68222

$$$$



 40 44  0  0  0  0  0  0  0  0999 V2000
   12.0403   17.7892   24.1843 C   0  0  0  0  0  0  0  0  0  0  0  0
   12.7971   17.0112   23.6126 O   0  0  0  0  0  0  0  0  0  0  0  0
   12.1952   18.2949   25.4692 N   0  0  0  0  0  0  0  0  0  0  0  0
   11.4036   18.7722   25.8813 H   0  0  0  0  0  0  0  0  0  0  0  0
    6.9971   19.1616   21.6707 C   0  0  0  0  0  0  0  0  0  0  0  0
    8.3257   18.7923   22.2739 C   0  0  0  0  0  0  0  0  0  0  0  0
    8.4012   18.5597   23.6534 C   0  0  0  0  0  0  0  0  0  0  0  0
    9.6196   18.2397   24.2477 C   0  0  0  0  0  0  0  0  0  0  0  0
   10.7851   18.1481   23.4760 C   0  0  0  0  0  0  0  0  0  0  0  0
   10.7236   18.3570   22.0961 C   0  0  0  0  0  0  0  0  0  0  0  0
    9.4975   18.6852   21.4969 C   0  0  0  0  0  0  0  0  0  0  0  0
    9.4687   18.9270   20.0838 C   0  0  0  0  0  0  0  0  0  0  0  0
    9.4006   19.1404   18.9043 C   0  0  0  0  0  0  0  0  0  0  0  0
    9.2559   19.3965   17.5156 C   0  0  0  0  0  0  0  0  0  0  0  0
    9.0761   20.6142   16.8938 C   0  0  0  0  0  0  0  0  0  0  0  0
    8.9924   20.4720   15.5303 N   0  0  0  0  0  0  0  0  0  0  0  0
    9.1203   19.1827   15.3153 C   0  0  0  0  0  0  0  0  0  0  0  0
    9.2798   18.4727   16.4986 N   0  0  0  0  0  0  0  0  0  0  0  0
    9.4414   17.1175   16.6317 N   0  0  0  0  0  0  0  0  0  0  0  0
    9.4264   16.4966   15.4907 C   0  0  0  0  0  0  0  0  0  0  0  0
    9.2604   17.1144   14.1540 C   0  0  0  0  0  0  0  0  0  0  0  0
    9.1118   18.4408   14.1091 C   0  0  0  0  0  0  0  0  0  0  0  0
   13.2513   17.9432   26.3455 C   0  0  0  0  0  0  0  0  0  0  0  0
   14.4009   18.7148   26.4882 C   0  0  0  0  0  0  0  0  0  0  0  0
   15.4725   18.2646   27.2561 C   0  0  0  0  0  0  0  0  0  0  0  0
   15.4278   17.0251   27.9131 C   0  0  0  0  0  0  0  0  0  0  0  0
   14.2424   16.2609   27.8462 C   0  0  0  0  0  0  0  0  0  0  0  0
   13.1601   16.7467   27.0659 C   0  0  0  0  0  0  0  0  0  0  0  0
   14.0554   14.9103   28.5134 C   0  0  0  0  0  0  0  0  0  0  0  0
   14.3884   14.8148   29.8263 F   0  0  0  0  0  0  0  0  0  0  0  0
   12.7461   14.5163   28.4649 F   0  0  0  0  0  0  0  0  0  0  0  0
   14.7455   13.9237   27.8706 F   0  0  0  0  0  0  0  0  0  0  0  0
   16.6901   16.5619   28.6124 C   0  0  0  0  0  0  0  0  0  0  0  0
   17.4867   15.6433   27.7979 N   0  0  0  0  0  0  0  0  0  0  0  0
   18.5827   16.2865   27.0536 C   0  0  0  0  0  0  0  0  0  0  0  0
   19.3502   15.2505   26.1971 C   0  0  0  0  0  0  0  0  0  0  0  0
   19.8930   14.1021   26.9504 N   0  0  0  0  0  0  0  0  0  0  0  0
   18.8198   13.5216   27.7831 C   0  0  0  0  0  0  0  0  0  0  0  0
   18.0178   14.5427   28.6233 C   0  0  0  0  0  0  0  0  0  0  0  0
   21.0504   14.4883   27.7523 C   0  0  0  0  0  0  0  0  0  0  0  0
  5  6  1  0  0  0
  6  7  1  0  0  0
  6 11  2  0  0  0
  7  8  2  0  0  0
  8  9  1  0  0  0
  9 10  2  0  0  0
  9  1  1  0  0  0
 10 11  1  0  0  0
 11 12  1  0  0  0
 12 13  3  0  0  0
 13 14  1  0  0  0
 14 15  2  0  0  0
 14 18  1  0  0  0
 15 16  1  0  0  0
 16 17  2  0  0  0
 17 18  1  0  0  0
 17 22  1  0  0  0
 18 19  1  0  0  0
 19 20  2  0  0  0
 20 21  1  0  0  0
 21 22  2  0  0  0
  1  2  2  0  0  0
  1  3  1  0  0  0
  3 23  1  0  0  0
  3  4  1  0  0  0
 23 24  1  0  0  0
 23 28  2  0  0  0
 24 25  2  0  0  0
 25 26  1  0  0  0
 26 27  2  0  0  0
 26 33  1  0  0  0
 27 28  1  0  0  0
 27 29  1  0  0  0
 29 30  1  0  0  0
 29 31  1  0  0  0
 29 32  1  0  0  0
 33 34  1  0  0  0
 34 35  1  0  0  0
 34 39  1  0  0  0
 35 36  1  0  0  0
 36 37  1  0  0  0
 37 38  1  0  0  0
 37 40  1  0  0  0
 38 39  1  0  0  0
M  END
> <minimizedAffinity>
-11.13987

$$$$



 40 44  0  0  0  0  0  0  0  0999 V2000
   11.7990   17.4023   24.3425 C   0  0  0  0  0  0  0  0  0  0  0  0
   12.7586   17.2849   23.5874 O   0  0  0  0  0  0  0  0  0  0  0  0
   11.7436   17.0045   25.6727 N   0  0  0  0  0  0  0  0  0  0  0  0
   10.8346   16.9876   26.1171 H   0  0  0  0  0  0  0  0  0  0  0  0
    6.7604   19.4240   22.3028 C   0  0  0  0  0  0  0  0  0  0  0  0
    8.0827   18.8872   22.7810 C   0  0  0  0  0  0  0  0  0  0  0  0
    8.2319   18.5652   24.1363 C   0  0  0  0  0  0  0  0  0  0  0  0
    9.4495   18.0890   24.6168 C   0  0  0  0  0  0  0  0  0  0  0  0
   10.5408   17.9278   23.7534 C   0  0  0  0  0  0  0  0  0  0  0  0
   10.4029   18.2249   22.3955 C   0  0  0  0  0  0  0  0  0  0  0  0
    9.1782   18.7103   21.9111 C   0  0  0  0  0  0  0  0  0  0  0  0
    9.0739   19.0389   20.5192 C   0  0  0  0  0  0  0  0  0  0  0  0
    9.0303   19.3269   19.3545 C   0  0  0  0  0  0  0  0  0  0  0  0
    9.0365   19.6954   17.9836 C   0  0  0  0  0  0  0  0  0  0  0  0
    8.9485   20.9630   17.4477 C   0  0  0  0  0  0  0  0  0  0  0  0
    9.0041   20.9309   16.0757 N   0  0  0  0  0  0  0  0  0  0  0  0
    9.1262   19.6593   15.7710 C   0  0  0  0  0  0  0  0  0  0  0  0
    9.1464   18.8541   16.9028 N   0  0  0  0  0  0  0  0  0  0  0  0
    9.2642   17.4884   16.9413 N   0  0  0  0  0  0  0  0  0  0  0  0
    9.3549   16.9598   15.7581 C   0  0  0  0  0  0  0  0  0  0  0  0
    9.3422   17.6853   14.4660 C   0  0  0  0  0  0  0  0  0  0  0  0
    9.2275   19.0149   14.5140 C   0  0  0  0  0  0  0  0  0  0  0  0
   12.7969   16.3484   26.3560 C   0  0  0  0  0  0  0  0  0  0  0  0
   12.8405   14.9676   26.5256 C   0  0  0  0  0  0  0  0  0  0  0  0
   13.8208   14.3760   27.3193 C   0  0  0  0  0  0  0  0  0  0  0  0
   14.7965   15.1484   27.9684 C   0  0  0  0  0  0  0  0  0  0  0  0
   14.8189   16.5430   27.7483 C   0  0  0  0  0  0  0  0  0  0  0  0
   13.8154   17.1206   26.9264 C   0  0  0  0  0  0  0  0  0  0  0  0
   15.8202   17.4935   28.3793 C   0  0  0  0  0  0  0  0  0  0  0  0
   16.0734   17.3388   29.7043 F   0  0  0  0  0  0  0  0  0  0  0  0
   17.0465   17.3809   27.7830 F   0  0  0  0  0  0  0  0  0  0  0  0
   15.4624   18.7994   28.2077 F   0  0  0  0  0  0  0  0  0  0  0  0
   15.7366   14.4300   28.9155 C   0  0  0  0  0  0  0  0  0  0  0  0
   16.9491   13.9460   28.2543 N   0  0  0  0  0  0  0  0  0  0  0  0
   16.9806   14.1760   26.8000 C   0  0  0  0  0  0  0  0  0  0  0  0
   18.2791   13.6062   26.1794 C   0  0  0  0  0  0  0  0  0  0  0  0
   19.5292   14.1225   26.7724 N   0  0  0  0  0  0  0  0  0  0  0  0
   19.4545   13.9932   28.2421 C   0  0  0  0  0  0  0  0  0  0  0  0
   18.1510   14.5267   28.8811 C   0  0  0  0  0  0  0  0  0  0  0  0
   19.7853   15.5004   26.3632 C   0  0  0  0  0  0  0  0  0  0  0  0
  5  6  1  0  0  0
  6  7  1  0  0  0
  6 11  2  0  0  0
  7  8  2  0  0  0
  8  9  1  0  0  0
  9 10  2  0  0  0
  9  1  1  0  0  0
 10 11  1  0  0  0
 11 12  1  0  0  0
 12 13  3  0  0  0
 13 14  1  0  0  0
 14 15  2  0  0  0
 14 18  1  0  0  0
 15 16  1  0  0  0
 16 17  2  0  0  0
 17 18  1  0  0  0
 17 22  1  0  0  0
 18 19  1  0  0  0
 19 20  2  0  0  0
 20 21  1  0  0  0
 21 22  2  0  0  0
  1  2  2  0  0  0
  1  3  1  0  0  0
  3 23  1  0  0  0
  3  4  1  0  0  0
 23 24  1  0  0  0
 23 28  2  0  0  0
 24 25  2  0  0  0
 25 26  1  0  0  0
 26 27  2  0  0  0
 26 33  1  0  0  0
 27 28  1  0  0  0
 27 29  1  0  0  0
 29 30  1  0  0  0
 29 31  1  0  0  0
 29 32  1  0  0  0
 33 34  1  0  0  0
 34 35  1  0  0  0
 34 39  1  0  0  0
 35 36  1  0  0  0
 36 37  1  0  0  0
 37 38  1  0  0  0
 37 40  1  0  0  0
 38 39  1  0  0  0
M  END
> <minimizedAffinity>
-11.13823

$$$$



 40 44  0  0  0  0  0  0  0  0999 V2000
    9.8802   18.4086   23.9186 C   0  0  0  0  0  0  0  0  0  0  0  0
    9.2488   18.1469   24.9373 O   0  0  0  0  0  0  0  0  0  0  0  0
   11.2592   18.3384   23.7630 N   0  0  0  0  0  0  0  0  0  0  0  0
   11.6574   18.7626   22.9350 H   0  0  0  0  0  0  0  0  0  0  0  0
    6.6784   20.6319   19.6243 C   0  0  0  0  0  0  0  0  0  0  0  0
    7.5309   20.0197   20.7031 C   0  0  0  0  0  0  0  0  0  0  0  0
    7.1961   20.2520   22.0435 C   0  0  0  0  0  0  0  0  0  0  0  0
    7.9776   19.7206   23.0667 C   0  0  0  0  0  0  0  0  0  0  0  0
    9.1088   18.9493   22.7702 C   0  0  0  0  0  0  0  0  0  0  0  0
    9.4450   18.6911   21.4392 C   0  0  0  0  0  0  0  0  0  0  0  0
    8.6616   19.2310   20.4072 C   0  0  0  0  0  0  0  0  0  0  0  0
    9.0482   18.9779   19.0497 C   0  0  0  0  0  0  0  0  0  0  0  0
    9.3868   18.8090   17.9104 C   0  0  0  0  0  0  0  0  0  0  0  0
    9.7965   18.6730   16.5580 C   0  0  0  0  0  0  0  0  0  0  0  0
   10.5700   19.5412   15.8167 C   0  0  0  0  0  0  0  0  0  0  0  0
   10.7746   19.0667   14.5441 N   0  0  0  0  0  0  0  0  0  0  0  0
   10.1359   17.9199   14.5031 C   0  0  0  0  0  0  0  0  0  0  0  0
    9.5125   17.6297   15.7101 N   0  0  0  0  0  0  0  0  0  0  0  0
    8.7680   16.5171   16.0071 N   0  0  0  0  0  0  0  0  0  0  0  0
    8.6728   15.6958   15.0050 C   0  0  0  0  0  0  0  0  0  0  0  0
    9.2747   15.8711   13.6623 C   0  0  0  0  0  0  0  0  0  0  0  0
    9.9883   16.9805   13.4537 C   0  0  0  0  0  0  0  0  0  0  0  0
   12.1640   17.9893   24.7955 C   0  0  0  0  0  0  0  0  0  0  0  0
   13.1131   18.8750   25.2974 C   0  0  0  0  0  0  0  0  0  0  0  0
   14.0715   18.4506   26.2152 C   0  0  0  0  0  0  0  0  0  0  0  0
   14.1094   17.1222   26.6668 C   0  0  0  0  0  0  0  0  0  0  0  0
   13.1094   16.2257   26.2311 C   0  0  0  0  0  0  0  0  0  0  0  0
   12.1372   16.6855   25.3039 C   0  0  0  0  0  0  0  0  0  0  0  0
   13.0270   14.7677   26.6453 C   0  0  0  0  0  0  0  0  0  0  0  0
   14.1768   14.0462   26.6101 F   0  0  0  0  0  0  0  0  0  0  0  0
   12.5897   14.6483   27.9363 F   0  0  0  0  0  0  0  0  0  0  0  0
   12.1178   14.0756   25.8988 F   0  0  0  0  0  0  0  0  0  0  0  0
   15.2676   16.7232   27.5592 C   0  0  0  0  0  0  0  0  0  0  0  0
   16.5672   16.8672   26.9021 N   0  0  0  0  0  0  0  0  0  0  0  0
   17.6812   17.1639   27.8186 C   0  0  0  0  0  0  0  0  0  0  0  0
   19.0077   17.3312   27.0386 C   0  0  0  0  0  0  0  0  0  0  0  0
   19.3791   16.1801   26.1912 N   0  0  0  0  0  0  0  0  0  0  0  0
   18.2243   15.8106   25.3475 C   0  0  0  0  0  0  0  0  0  0  0  0
   16.8811   15.6695   26.1009 C   0  0  0  0  0  0  0  0  0  0  0  0
   19.8441   15.0533   26.9949 C   0  0  0  0  0  0  0  0  0  0  0  0
  5  6  1  0  0  0
  6  7  1  0  0  0
  6 11  2  0  0  0
  7  8  2  0  0  0
  8  9  1  0  0  0
  9 10  2  0  0  0
  9  1  1  0  0  0
 10 11  1  0  0  0
 11 12  1  0  0  0
 12 13  3  0  0  0
 13 14  1  0  0  0
 14 15  2  0  0  0
 14 18  1  0  0  0
 15 16  1  0  0  0
 16 17  2  0  0  0
 17 18  1  0  0  0
 17 22  1  0  0  0
 18 19  1  0  0  0
 19 20  2  0  0  0
 20 21  1  0  0  0
 21 22  2  0  0  0
  1  2  2  0  0  0
  1  3  1  0  0  0
  3 23  1  0  0  0
  3  4  1  0  0  0
 23 24  1  0  0  0
 23 28  2  0  0  0
 24 25  2  0  0  0
 25 26  1  0  0  0
 26 27  2  0  0  0
 26 33  1  0  0  0
 27 28  1  0  0  0
 27 29  1  0  0  0
 29 30  1  0  0  0
 29 31  1  0  0  0
 29 32  1  0  0  0
 33 34  1  0  0  0
 34 35  1  0  0  0
 34 39  1  0  0  0
 35 36  1  0  0  0
 36 37  1  0  0  0
 37 38  1  0  0  0
 37 40  1  0  0  0
 38 39  1  0  0  0
M  END
> <minimizedAffinity>
-10.93927

$$$$



 40 44  0  0  0  0  0  0  0  0999 V2000
   12.6290   17.6627   24.8570 C   0  0  0  0  0  0  0  0  0  0  0  0
   13.5200   17.4416   24.0434 O   0  0  0  0  0  0  0  0  0  0  0  0
   12.7387   17.5872   26.2401 N   0  0  0  0  0  0  0  0  0  0  0  0
   11.8818   17.6084   26.7780 H   0  0  0  0  0  0  0  0  0  0  0  0
    7.2385   18.7264   23.0006 C   0  0  0  0  0  0  0  0  0  0  0  0
    8.6508   18.4348   23.4318 C   0  0  0  0  0  0  0  0  0  0  0  0
    8.9245   18.2886   24.7980 C   0  0  0  0  0  0  0  0  0  0  0  0
   10.2246   18.0424   25.2330 C   0  0  0  0  0  0  0  0  0  0  0  0
   11.2753   17.9398   24.3122 C   0  0  0  0  0  0  0  0  0  0  0  0
   11.0162   18.0628   22.9451 C   0  0  0  0  0  0  0  0  0  0  0  0
    9.7075   18.3167   22.5058 C   0  0  0  0  0  0  0  0  0  0  0  0
    9.4750   18.4715   21.0993 C   0  0  0  0  0  0  0  0  0  0  0  0
    9.2913   18.6451   19.9257 C   0  0  0  0  0  0  0  0  0  0  0  0
    9.0786   18.9140   18.5481 C   0  0  0  0  0  0  0  0  0  0  0  0
    9.6794   18.3077   17.4649 C   0  0  0  0  0  0  0  0  0  0  0  0
    9.2090   18.8200   16.2806 N   0  0  0  0  0  0  0  0  0  0  0  0
    8.3287   19.7296   16.6305 C   0  0  0  0  0  0  0  0  0  0  0  0
    8.2111   19.8341   18.0107 N   0  0  0  0  0  0  0  0  0  0  0  0
    7.3851   20.6792   18.7063 N   0  0  0  0  0  0  0  0  0  0  0  0
    6.6727   21.4369   17.9276 C   0  0  0  0  0  0  0  0  0  0  0  0
    6.6931   21.4434   16.4459 C   0  0  0  0  0  0  0  0  0  0  0  0
    7.5228   20.5878   15.8434 C   0  0  0  0  0  0  0  0  0  0  0  0
   13.9113   17.1906   26.9292 C   0  0  0  0  0  0  0  0  0  0  0  0
   14.7311   18.0916   27.6023 C   0  0  0  0  0  0  0  0  0  0  0  0
   15.9445   17.6815   28.1505 C   0  0  0  0  0  0  0  0  0  0  0  0
   16.3775   16.3505   28.0472 C   0  0  0  0  0  0  0  0  0  0  0  0
   15.5270   15.4028   27.4370 C   0  0  0  0  0  0  0  0  0  0  0  0
   14.2905   15.8437   26.8957 C   0  0  0  0  0  0  0  0  0  0  0  0
   15.8660   13.9331   27.2656 C   0  0  0  0  0  0  0  0  0  0  0  0
   16.2238   13.2443   28.3797 F   0  0  0  0  0  0  0  0  0  0  0  0
   14.7989   13.2388   26.7643 F   0  0  0  0  0  0  0  0  0  0  0  0
   16.8687   13.7429   26.3594 F   0  0  0  0  0  0  0  0  0  0  0  0
   17.7688   16.0296   28.5553 C   0  0  0  0  0  0  0  0  0  0  0  0
   18.8095   16.8257   27.9037 N   0  0  0  0  0  0  0  0  0  0  0  0
   19.9745   17.1165   28.7565 C   0  0  0  0  0  0  0  0  0  0  0  0
   21.0077   17.9869   28.0008 C   0  0  0  0  0  0  0  0  0  0  0  0
   21.4807   17.4194   26.7221 N   0  0  0  0  0  0  0  0  0  0  0  0
   20.3125   17.0251   25.9086 C   0  0  0  0  0  0  0  0  0  0  0  0
   19.2508   16.1817   26.6526 C   0  0  0  0  0  0  0  0  0  0  0  0
   22.3913   16.2989   26.9394 C   0  0  0  0  0  0  0  0  0  0  0  0
  5  6  1  0  0  0
  6  7  1  0  0  0
  6 11  2  0  0  0
  7  8  2  0  0  0
  8  9  1  0  0  0
  9 10  2  0  0  0
  9  1  1  0  0  0
 10 11  1  0  0  0
 11 12  1  0  0  0
 12 13  3  0  0  0
 13 14  1  0  0  0
 14 15  2  0  0  0
 14 18  1  0  0  0
 15 16  1  0  0  0
 16 17  2  0  0  0
 17 18  1  0  0  0
 17 22  1  0  0  0
 18 19  1  0  0  0
 19 20  2  0  0  0
 20 21  1  0  0  0
 21 22  2  0  0  0
  1  2  2  0  0  0
  1  3  1  0  0  0
  3 23  1  0  0  0
  3  4  1  0  0  0
 23 24  1  0  0  0
 23 28  2  0  0  0
 24 25  2  0  0  0
 25 26  1  0  0  0
 26 27  2  0  0  0
 26 33  1  0  0  0
 27 28  1  0  0  0
 27 29  1  0  0  0
 29 30  1  0  0  0
 29 31  1  0  0  0
 29 32  1  0  0  0
 33 34  1  0  0  0
 34 35  1  0  0  0
 34 39  1  0  0  0
 35 36  1  0  0  0
 36 37  1  0  0  0
 37 38  1  0  0  0
 37 40  1  0  0  0
 38 39  1  0  0  0
M  END
> <minimizedAffinity>
-10.92773

$$$$



 40 44  0  0  0  0  0  0  0  0999 V2000
   11.2318   19.7108   23.2020 C   0  0  0  0  0  0  0  0  0  0  0  0
   12.1235   19.3474   22.4420 O   0  0  0  0  0  0  0  0  0  0  0  0
    9.8739   19.7658   22.9125 N   0  0  0  0  0  0  0  0  0  0  0  0
    9.2779   20.2619   23.5627 H   0  0  0  0  0  0  0  0  0  0  0  0
   12.8345   21.5045   28.4792 C   0  0  0  0  0  0  0  0  0  0  0  0
   12.4063   21.0906   27.0969 C   0  0  0  0  0  0  0  0  0  0  0  0
   12.1279   19.7399   26.8509 C   0  0  0  0  0  0  0  0  0  0  0  0
   11.7526   19.3190   25.5773 C   0  0  0  0  0  0  0  0  0  0  0  0
   11.6506   20.2387   24.5256 C   0  0  0  0  0  0  0  0  0  0  0  0
   11.9050   21.5923   24.7585 C   0  0  0  0  0  0  0  0  0  0  0  0
   12.2889   22.0168   26.0402 C   0  0  0  0  0  0  0  0  0  0  0  0
   12.5763   23.4069   26.2439 C   0  0  0  0  0  0  0  0  0  0  0  0
   12.7749   24.5805   26.3999 C   0  0  0  0  0  0  0  0  0  0  0  0
   12.9546   25.9804   26.5529 C   0  0  0  0  0  0  0  0  0  0  0  0
   12.4870   26.7876   27.5686 C   0  0  0  0  0  0  0  0  0  0  0  0
   12.8740   28.0930   27.3883 N   0  0  0  0  0  0  0  0  0  0  0  0
   13.5723   28.0891   26.2760 C   0  0  0  0  0  0  0  0  0  0  0  0
   13.6505   26.8199   25.7169 N   0  0  0  0  0  0  0  0  0  0  0  0
   14.3022   26.4656   24.5636 N   0  0  0  0  0  0  0  0  0  0  0  0
   14.8778   27.4752   23.9829 C   0  0  0  0  0  0  0  0  0  0  0  0
   14.8767   28.8801   24.4542 C   0  0  0  0  0  0  0  0  0  0  0  0
   14.2220   29.1427   25.5881 C   0  0  0  0  0  0  0  0  0  0  0  0
    9.3109   19.4454   21.6526 C   0  0  0  0  0  0  0  0  0  0  0  0
    9.0463   18.1379   21.2557 C   0  0  0  0  0  0  0  0  0  0  0  0
    8.6204   17.8571   19.9593 C   0  0  0  0  0  0  0  0  0  0  0  0
    8.4398   18.8793   19.0147 C   0  0  0  0  0  0  0  0  0  0  0  0
    8.6270   20.2197   19.4171 C   0  0  0  0  0  0  0  0  0  0  0  0
    9.0507   20.4805   20.7470 C   0  0  0  0  0  0  0  0  0  0  0  0
    8.4587   21.4197   18.5028 C   0  0  0  0  0  0  0  0  0  0  0  0
    7.3330   21.4701   17.7452 F   0  0  0  0  0  0  0  0  0  0  0  0
    8.4381   22.5843   19.2207 F   0  0  0  0  0  0  0  0  0  0  0  0
    9.5074   21.5549   17.6398 F   0  0  0  0  0  0  0  0  0  0  0  0
    8.1052   18.4648   17.5958 C   0  0  0  0  0  0  0  0  0  0  0  0
    9.2944   18.1881   16.7891 N   0  0  0  0  0  0  0  0  0  0  0  0
    9.5699   16.7558   16.5853 C   0  0  0  0  0  0  0  0  0  0  0  0
   10.8586   16.5552   15.7516 C   0  0  0  0  0  0  0  0  0  0  0  0
   10.8615   17.2341   14.4401 N   0  0  0  0  0  0  0  0  0  0  0  0
   10.4779   18.6481   14.6287 C   0  0  0  0  0  0  0  0  0  0  0  0
    9.2108   18.8741   15.4863 C   0  0  0  0  0  0  0  0  0  0  0  0
    9.9856   16.5587   13.4870 C   0  0  0  0  0  0  0  0  0  0  0  0
  5  6  1  0  0  0
  6  7  1  0  0  0
  6 11  2  0  0  0
  7  8  2  0  0  0
  8  9  1  0  0  0
  9 10  2  0  0  0
  9  1  1  0  0  0
 10 11  1  0  0  0
 11 12  1  0  0  0
 12 13  3  0  0  0
 13 14  1  0  0  0
 14 15  2  0  0  0
 14 18  1  0  0  0
 15 16  1  0  0  0
 16 17  2  0  0  0
 17 18  1  0  0  0
 17 22  1  0  0  0
 18 19  1  0  0  0
 19 20  2  0  0  0
 20 21  1  0  0  0
 21 22  2  0  0  0
  1  2  2  0  0  0
  1  3  1  0  0  0
  3 23  1  0  0  0
  3  4  1  0  0  0
 23 24  1  0  0  0
 23 28  2  0  0  0
 24 25  2  0  0  0
 25 26  1  0  0  0
 26 27  2  0  0  0
 26 33  1  0  0  0
 27 28  1  0  0  0
 27 29  1  0  0  0
 29 30  1  0  0  0
 29 31  1  0  0  0
 29 32  1  0  0  0
 33 34  1  0  0  0
 34 35  1  0  0  0
 34 39  1  0  0  0
 35 36  1  0  0  0
 36 37  1  0  0  0
 37 38  1  0  0  0
 37 40  1  0  0  0
 38 39  1  0  0  0
M  END
> <minimizedAffinity>
-10.25370

$$$$



 40 44  0  0  0  0  0  0  0  0999 V2000
   12.6204   15.9107   25.9861 C   0  0  0  0  0  0  0  0  0  0  0  0
   12.0761   14.9193   25.5112 O   0  0  0  0  0  0  0  0  0  0  0  0
   12.5323   17.2103   25.5024 N   0  0  0  0  0  0  0  0  0  0  0  0
   13.1806   17.8920   25.8755 H   0  0  0  0  0  0  0  0  0  0  0  0
   15.9972   14.9587   30.6041 C   0  0  0  0  0  0  0  0  0  0  0  0
   15.1595   15.2383   29.3853 C   0  0  0  0  0  0  0  0  0  0  0  0
   13.7882   14.9547   29.4272 C   0  0  0  0  0  0  0  0  0  0  0  0
   12.9885   15.1788   28.3089 C   0  0  0  0  0  0  0  0  0  0  0  0
   13.5438   15.6882   27.1280 C   0  0  0  0  0  0  0  0  0  0  0  0
   14.9055   15.9955   27.0760 C   0  0  0  0  0  0  0  0  0  0  0  0
   15.7135   15.7646   28.2002 C   0  0  0  0  0  0  0  0  0  0  0  0
   17.1142   16.0578   28.1089 C   0  0  0  0  0  0  0  0  0  0  0  0
   18.2763   16.3460   28.0210 C   0  0  0  0  0  0  0  0  0  0  0  0
   19.6330   16.7428   27.8900 C   0  0  0  0  0  0  0  0  0  0  0  0
   20.5699   16.8970   28.8901 C   0  0  0  0  0  0  0  0  0  0  0  0
   21.7871   17.2781   28.3806 N   0  0  0  0  0  0  0  0  0  0  0  0
   21.6020   17.3563   27.0828 C   0  0  0  0  0  0  0  0  0  0  0  0
   20.2968   17.0433   26.7251 N   0  0  0  0  0  0  0  0  0  0  0  0
   19.7706   17.0248   25.4588 N   0  0  0  0  0  0  0  0  0  0  0  0
   20.6398   17.3517   24.5503 C   0  0  0  0  0  0  0  0  0  0  0  0
   22.0584   17.7141   24.7785 C   0  0  0  0  0  0  0  0  0  0  0  0
   22.4950   17.7052   26.0405 C   0  0  0  0  0  0  0  0  0  0  0  0
   11.8204   17.5832   24.3357 C   0  0  0  0  0  0  0  0  0  0  0  0
   12.4417   17.7902   23.1075 C   0  0  0  0  0  0  0  0  0  0  0  0
   11.7266   18.2871   22.0201 C   0  0  0  0  0  0  0  0  0  0  0  0
   10.3601   18.5903   22.1241 C   0  0  0  0  0  0  0  0  0  0  0  0
    9.6917   18.3152   23.3370 C   0  0  0  0  0  0  0  0  0  0  0  0
   10.4405   17.7986   24.4273 C   0  0  0  0  0  0  0  0  0  0  0  0
    8.2186   18.5862   23.5835 C   0  0  0  0  0  0  0  0  0  0  0  0
    7.8225   19.8846   23.6132 F   0  0  0  0  0  0  0  0  0  0  0  0
    7.4453   18.0167   22.6089 F   0  0  0  0  0  0  0  0  0  0  0  0
    7.7850   18.0268   24.7506 F   0  0  0  0  0  0  0  0  0  0  0  0
    9.7008   19.2508   20.9300 C   0  0  0  0  0  0  0  0  0  0  0  0
    9.3968   18.3066   19.8541 N   0  0  0  0  0  0  0  0  0  0  0  0
    8.7154   18.9065   18.6945 C   0  0  0  0  0  0  0  0  0  0  0  0
    8.4044   17.8345   17.6221 C   0  0  0  0  0  0  0  0  0  0  0  0
    9.5772   17.0733   17.1466 N   0  0  0  0  0  0  0  0  0  0  0  0
   10.3248   16.5618   18.3135 C   0  0  0  0  0  0  0  0  0  0  0  0
   10.6188   17.6087   19.4132 C   0  0  0  0  0  0  0  0  0  0  0  0
   10.4231   17.8844   16.2757 C   0  0  0  0  0  0  0  0  0  0  0  0
  5  6  1  0  0  0
  6  7  1  0  0  0
  6 11  2  0  0  0
  7  8  2  0  0  0
  8  9  1  0  0  0
  9 10  2  0  0  0
  9  1  1  0  0  0
 10 11  1  0  0  0
 11 12  1  0  0  0
 12 13  3  0  0  0
 13 14  1  0  0  0
 14 15  2  0  0  0
 14 18  1  0  0  0
 15 16  1  0  0  0
 16 17  2  0  0  0
 17 18  1  0  0  0
 17 22  1  0  0  0
 18 19  1  0  0  0
 19 20  2  0  0  0
 20 21  1  0  0  0
 21 22  2  0  0  0
  1  2  2  0  0  0
  1  3  1  0  0  0
  3 23  1  0  0  0
  3  4  1  0  0  0
 23 24  1  0  0  0
 23 28  2  0  0  0
 24 25  2  0  0  0
 25 26  1  0  0  0
 26 27  2  0  0  0
 26 33  1  0  0  0
 27 28  1  0  0  0
 27 29  1  0  0  0
 29 30  1  0  0  0
 29 31  1  0  0  0
 29 32  1  0  0  0
 33 34  1  0  0  0
 34 35  1  0  0  0
 34 39  1  0  0  0
 35 36  1  0  0  0
 36 37  1  0  0  0
 37 38  1  0  0  0
 37 40  1  0  0  0
 38 39  1  0  0  0
M  END
> <minimizedAffinity>
-10.24228

$$$$



 40 44  0  0  0  0  0  0  0  0999 V2000
    9.8129   18.8065   24.0742 C   0  0  0  0  0  0  0  0  0  0  0  0
    8.8339   18.0775   24.1964 O   0  0  0  0  0  0  0  0  0  0  0  0
   10.2714   19.3796   22.8943 N   0  0  0  0  0  0  0  0  0  0  0  0
   11.1921   19.7993   22.9065 H   0  0  0  0  0  0  0  0  0  0  0  0
   12.9315   19.8768   28.8454 C   0  0  0  0  0  0  0  0  0  0  0  0
   12.1619   19.5659   27.5898 C   0  0  0  0  0  0  0  0  0  0  0  0
   11.1134   20.4145   27.2114 C   0  0  0  0  0  0  0  0  0  0  0  0
   10.3652   20.1425   26.0684 C   0  0  0  0  0  0  0  0  0  0  0  0
   10.6489   19.0173   25.2837 C   0  0  0  0  0  0  0  0  0  0  0  0
   11.7040   18.1723   25.6356 C   0  0  0  0  0  0  0  0  0  0  0  0
   12.4549   18.4420   26.7904 C   0  0  0  0  0  0  0  0  0  0  0  0
   13.5111   17.5399   27.1468 C   0  0  0  0  0  0  0  0  0  0  0  0
   14.3775   16.7540   27.4167 C   0  0  0  0  0  0  0  0  0  0  0  0
   15.3687   15.7792   27.7043 C   0  0  0  0  0  0  0  0  0  0  0  0
   15.4703   14.9803   28.8238 C   0  0  0  0  0  0  0  0  0  0  0  0
   16.5555   14.1422   28.7432 N   0  0  0  0  0  0  0  0  0  0  0  0
   17.1142   14.4209   27.5879 C   0  0  0  0  0  0  0  0  0  0  0  0
   16.4310   15.4222   26.9092 N   0  0  0  0  0  0  0  0  0  0  0  0
   16.7434   15.9475   25.6817 N   0  0  0  0  0  0  0  0  0  0  0  0
   17.8056   15.4094   25.1620 C   0  0  0  0  0  0  0  0  0  0  0  0
   18.6374   14.3419   25.7659 C   0  0  0  0  0  0  0  0  0  0  0  0
   18.2644   13.8811   26.9625 C   0  0  0  0  0  0  0  0  0  0  0  0
    9.6881   19.1649   21.6213 C   0  0  0  0  0  0  0  0  0  0  0  0
   10.0189   18.0805   20.8138 C   0  0  0  0  0  0  0  0  0  0  0  0
    9.5250   17.9801   19.5150 C   0  0  0  0  0  0  0  0  0  0  0  0
    8.6768   18.9623   18.9804 C   0  0  0  0  0  0  0  0  0  0  0  0
    8.2656   20.0307   19.8070 C   0  0  0  0  0  0  0  0  0  0  0  0
    8.7744   20.1047   21.1306 C   0  0  0  0  0  0  0  0  0  0  0  0
    7.3476   21.1542   19.3608 C   0  0  0  0  0  0  0  0  0  0  0  0
    6.1037   20.8094   18.9393 F   0  0  0  0  0  0  0  0  0  0  0  0
    7.1281   22.0418   20.3787 F   0  0  0  0  0  0  0  0  0  0  0  0
    7.8998   21.8965   18.3574 F   0  0  0  0  0  0  0  0  0  0  0  0
    8.3001   18.8357   17.5179 C   0  0  0  0  0  0  0  0  0  0  0  0
    9.4117   18.3804   16.6820 N   0  0  0  0  0  0  0  0  0  0  0  0
    9.4894   16.9188   16.5187 C   0  0  0  0  0  0  0  0  0  0  0  0
   10.7084   16.5249   15.6498 C   0  0  0  0  0  0  0  0  0  0  0  0
   10.7510   17.1581   14.3164 N   0  0  0  0  0  0  0  0  0  0  0  0
   10.5632   18.6154   14.4689 C   0  0  0  0  0  0  0  0  0  0  0  0
    9.3698   19.0322   15.3599 C   0  0  0  0  0  0  0  0  0  0  0  0
    9.7590   16.5763   13.4168 C   0  0  0  0  0  0  0  0  0  0  0  0
  5  6  1  0  0  0
  6  7  1  0  0  0
  6 11  2  0  0  0
  7  8  2  0  0  0
  8  9  1  0  0  0
  9 10  2  0  0  0
  9  1  1  0  0  0
 10 11  1  0  0  0
 11 12  1  0  0  0
 12 13  3  0  0  0
 13 14  1  0  0  0
 14 15  2  0  0  0
 14 18  1  0  0  0
 15 16  1  0  0  0
 16 17  2  0  0  0
 17 18  1  0  0  0
 17 22  1  0  0  0
 18 19  1  0  0  0
 19 20  2  0  0  0
 20 21  1  0  0  0
 21 22  2  0  0  0
  1  2  2  0  0  0
  1  3  1  0  0  0
  3 23  1  0  0  0
  3  4  1  0  0  0
 23 24  1  0  0  0
 23 28  2  0  0  0
 24 25  2  0  0  0
 25 26  1  0  0  0
 26 27  2  0  0  0
 26 33  1  0  0  0
 27 28  1  0  0  0
 27 29  1  0  0  0
 29 30  1  0  0  0
 29 31  1  0  0  0
 29 32  1  0  0  0
 33 34  1  0  0  0
 34 35  1  0  0  0
 34 39  1  0  0  0
 35 36  1  0  0  0
 36 37  1  0  0  0
 37 38  1  0  0  0
 37 40  1  0  0  0
 38 39  1  0  0  0
M  END
> <minimizedAffinity>
-10.20225

$$$$



 40 44  0  0  0  0  0  0  0  0999 V2000
   12.4982   16.2227   25.5179 C   0  0  0  0  0  0  0  0  0  0  0  0
   11.6025   15.3882   25.4396 O   0  0  0  0  0  0  0  0  0  0  0  0
   12.5928   17.4010   24.7875 N   0  0  0  0  0  0  0  0  0  0  0  0
   13.4743   17.8974   24.8148 H   0  0  0  0  0  0  0  0  0  0  0  0
   16.7848   14.8510   29.1756 C   0  0  0  0  0  0  0  0  0  0  0  0
   15.7062   15.2416   28.2012 C   0  0  0  0  0  0  0  0  0  0  0  0
   14.3727   14.9478   28.5145 C   0  0  0  0  0  0  0  0  0  0  0  0
   13.3522   15.2737   27.6242 C   0  0  0  0  0  0  0  0  0  0  0  0
   13.6447   15.8968   26.4043 C   0  0  0  0  0  0  0  0  0  0  0  0
   14.9669   16.2152   26.0855 C   0  0  0  0  0  0  0  0  0  0  0  0
   15.9968   15.8821   26.9791 C   0  0  0  0  0  0  0  0  0  0  0  0
   17.3483   16.1903   26.6123 C   0  0  0  0  0  0  0  0  0  0  0  0
   18.4654   16.4573   26.2629 C   0  0  0  0  0  0  0  0  0  0  0  0
   19.7655   16.7737   25.7887 C   0  0  0  0  0  0  0  0  0  0  0  0
   20.1388   17.1135   24.5053 C   0  0  0  0  0  0  0  0  0  0  0  0
   21.4859   17.3694   24.4276 N   0  0  0  0  0  0  0  0  0  0  0  0
   21.9361   17.1906   25.6482 C   0  0  0  0  0  0  0  0  0  0  0  0
   20.9248   16.8188   26.5250 N   0  0  0  0  0  0  0  0  0  0  0  0
   21.0501   16.5577   27.8653 N   0  0  0  0  0  0  0  0  0  0  0  0
   22.2719   16.6842   28.2884 C   0  0  0  0  0  0  0  0  0  0  0  0
   23.4503   17.0665   27.4753 C   0  0  0  0  0  0  0  0  0  0  0  0
   23.2442   17.3076   26.1780 C   0  0  0  0  0  0  0  0  0  0  0  0
   11.6702   17.7996   23.7891 C   0  0  0  0  0  0  0  0  0  0  0  0
   12.0567   18.1235   22.4918 C   0  0  0  0  0  0  0  0  0  0  0  0
   11.1382   18.6405   21.5808 C   0  0  0  0  0  0  0  0  0  0  0  0
    9.7964   18.8471   21.9372 C   0  0  0  0  0  0  0  0  0  0  0  0
    9.3645   18.4534   23.2226 C   0  0  0  0  0  0  0  0  0  0  0  0
   10.3178   17.9189   24.1291 C   0  0  0  0  0  0  0  0  0  0  0  0
    7.9444   18.6122   23.7347 C   0  0  0  0  0  0  0  0  0  0  0  0
    6.9456   18.1182   22.9587 F   0  0  0  0  0  0  0  0  0  0  0  0
    7.7836   17.9818   24.9383 F   0  0  0  0  0  0  0  0  0  0  0  0
    7.6317   19.9188   23.9754 F   0  0  0  0  0  0  0  0  0  0  0  0
    8.9054   19.5374   20.9240 C   0  0  0  0  0  0  0  0  0  0  0  0
    9.4893   19.5700   19.5825 N   0  0  0  0  0  0  0  0  0  0  0  0
    9.0586   18.4677   18.7060 C   0  0  0  0  0  0  0  0  0  0  0  0
    9.7467   18.5617   17.3227 C   0  0  0  0  0  0  0  0  0  0  0  0
    9.5455   19.8422   16.6149 N   0  0  0  0  0  0  0  0  0  0  0  0
    9.8728   20.9549   17.5297 C   0  0  0  0  0  0  0  0  0  0  0  0
    9.2218   20.8650   18.9297 C   0  0  0  0  0  0  0  0  0  0  0  0
    8.1874   19.9549   16.0906 C   0  0  0  0  0  0  0  0  0  0  0  0
  5  6  1  0  0  0
  6  7  1  0  0  0
  6 11  2  0  0  0
  7  8  2  0  0  0
  8  9  1  0  0  0
  9 10  2  0  0  0
  9  1  1  0  0  0
 10 11  1  0  0  0
 11 12  1  0  0  0
 12 13  3  0  0  0
 13 14  1  0  0  0
 14 15  2  0  0  0
 14 18  1  0  0  0
 15 16  1  0  0  0
 16 17  2  0  0  0
 17 18  1  0  0  0
 17 22  1  0  0  0
 18 19  1  0  0  0
 19 20  2  0  0  0
 20 21  1  0  0  0
 21 22  2  0  0  0
  1  2  2  0  0  0
  1  3  1  0  0  0
  3 23  1  0  0  0
  3  4  1  0  0  0
 23 24  1  0  0  0
 23 28  2  0  0  0
 24 25  2  0  0  0
 25 26  1  0  0  0
 26 27  2  0  0  0
 26 33  1  0  0  0
 27 28  1  0  0  0
 27 29  1  0  0  0
 29 30  1  0  0  0
 29 31  1  0  0  0
 29 32  1  0  0  0
 33 34  1  0  0  0
 34 35  1  0  0  0
 34 39  1  0  0  0
 35 36  1  0  0  0
 36 37  1  0  0  0
 37 38  1  0  0  0
 37 40  1  0  0  0
 38 39  1  0  0  0
M  END
> <minimizedAffinity>
-10.11175

$$$$
